MODPATH_TIMESERIES_FILE         7         2
    1   0.0000000000E+00  0.0000000000E+00  0.0000000000E+00  0.0000000000E+00
END HEADER
       0       1  0.000000000E+000         1    1         1       283  5.000000000E-001  5.000000000E-001  5.000000000E-001  6.250000000E+002  6.375000000E+003  2.348258547E+001         1
       1       1  1.073100000E+002         1    1         1       283  5.000536931E-001  4.977745426E-001  4.994982599E-001  6.250134233E+002  6.374443636E+003  2.346950964E+001         1
       2       1  2.146200000E+002         1    1         1       283  5.001073855E-001  4.955467161E-001  4.989970234E-001  6.250268464E+002  6.373886679E+003  2.345644693E+001         1
       3       1  3.219300000E+002         1    1         1       283  5.001610772E-001  4.933165182E-001  4.984962898E-001  6.250402693E+002  6.373329130E+003  2.344339733E+001         1
       4       1  4.292400000E+002         1    1         1       283  5.002147681E-001  4.910839463E-001  4.979960587E-001  6.250536920E+002  6.372770987E+003  2.343036082E+001         1
       5       1  5.365500000E+002         1    1         1       283  5.002684584E-001  4.888489979E-001  4.974963295E-001  6.250671146E+002  6.372212249E+003  2.341733739E+001         1
       6       1  6.438600000E+002         1    1         1       283  5.003221479E-001  4.866116703E-001  4.969971018E-001  6.250805370E+002  6.371652918E+003  2.340432703E+001         1
       7       1  7.511700000E+002         1    1         1       283  5.003758367E-001  4.843719612E-001  4.964983751E-001  6.250939592E+002  6.371092990E+003  2.339132973E+001         1
       8       1  8.584800000E+002         1    1         1       283  5.004295248E-001  4.821298679E-001  4.960001489E-001  6.251073812E+002  6.370532467E+003  2.337834547E+001         1
       9       1  9.657900000E+002         1    1         1       283  5.004832121E-001  4.798853880E-001  4.955024226E-001  6.251208030E+002  6.369971347E+003  2.336537424E+001         1
      10       1  1.073100000E+003         1    1         1       283  5.005368988E-001  4.776385188E-001  4.950051958E-001  6.251342247E+002  6.369409630E+003  2.335241603E+001         1
      11       1  1.180410000E+003         1    1         1       283  5.005905847E-001  4.753892579E-001  4.945084679E-001  6.251476462E+002  6.368847314E+003  2.333947082E+001         1
      12       1  1.287720000E+003         1    1         1       283  5.006442699E-001  4.731376026E-001  4.940122385E-001  6.251610675E+002  6.368284401E+003  2.332653860E+001         1
      13       1  1.395030000E+003         1    1         1       283  5.006979544E-001  4.708835505E-001  4.935165070E-001  6.251744886E+002  6.367720888E+003  2.331361935E+001         1
      14       1  1.502340000E+003         1    1         1       283  5.007516381E-001  4.686270990E-001  4.930212730E-001  6.251879095E+002  6.367156775E+003  2.330071307E+001         1
      15       1  1.609650000E+003         1    1         1       283  5.008053211E-001  4.663682456E-001  4.925265360E-001  6.252013303E+002  6.366592061E+003  2.328781975E+001         1
      16       1  1.716960000E+003         1    1         1       283  5.008590035E-001  4.641069876E-001  4.920322954E-001  6.252147509E+002  6.366026747E+003  2.327493936E+001         1
      17       1  1.824270000E+003         1    1         1       283  5.009126851E-001  4.618433225E-001  4.915385507E-001  6.252281713E+002  6.365460831E+003  2.326207189E+001         1
      18       1  1.931580000E+003         1    1         1       283  5.009663659E-001  4.595772478E-001  4.910453016E-001  6.252415915E+002  6.364894312E+003  2.324921734E+001         1
      19       1  2.038890000E+003         1    1         1       283  5.010200461E-001  4.573087609E-001  4.905525474E-001  6.252550115E+002  6.364327190E+003  2.323637569E+001         1
      20       1  2.146200000E+003         1    1         1       283  5.010737255E-001  4.550378592E-001  4.900602877E-001  6.252684314E+002  6.363759465E+003  2.322354692E+001         1
      21       1  2.253510000E+003         1    1         1       283  5.011274043E-001  4.527645402E-001  4.895685219E-001  6.252818511E+002  6.363191135E+003  2.321073103E+001         1
      22       1  2.360820000E+003         1    1         1       283  5.011810823E-001  4.504888013E-001  4.890772496E-001  6.252952706E+002  6.362622200E+003  2.319792799E+001         1
      23       1  2.468130000E+003         1    1         1       283  5.012347596E-001  4.482106398E-001  4.885864703E-001  6.253086899E+002  6.362052660E+003  2.318513781E+001         1
      24       1  2.575440000E+003         1    1         1       283  5.012884361E-001  4.459300533E-001  4.880961835E-001  6.253221090E+002  6.361482513E+003  2.317236046E+001         1
      25       1  2.682750000E+003         1    1         1       283  5.013421120E-001  4.436470392E-001  4.876063887E-001  6.253355280E+002  6.360911760E+003  2.315959593E+001         1
      26       1  2.790060000E+003         1    1         1       283  5.013957871E-001  4.413615948E-001  4.871170854E-001  6.253489468E+002  6.360340399E+003  2.314684421E+001         1
      27       1  2.897370000E+003         1    1         1       283  5.014494615E-001  4.390737176E-001  4.866282731E-001  6.253623654E+002  6.359768429E+003  2.313410529E+001         1
      28       1  3.004680000E+003         1    1         1       283  5.015031352E-001  4.367834050E-001  4.861399513E-001  6.253757838E+002  6.359195851E+003  2.312137915E+001         1
      29       1  3.111990000E+003         1    1         1       283  5.015568081E-001  4.344906543E-001  4.856521195E-001  6.253892020E+002  6.358622664E+003  2.310866578E+001         1
      30       1  3.219300000E+003         1    1         1       283  5.016104804E-001  4.321954631E-001  4.851647772E-001  6.254026201E+002  6.358048866E+003  2.309596517E+001         1
      31       1  3.326610000E+003         1    1         1       283  5.016641519E-001  4.298978287E-001  4.846779240E-001  6.254160380E+002  6.357474457E+003  2.308327730E+001         1
      32       1  3.433920000E+003         1    1         1       283  5.017178227E-001  4.275977484E-001  4.841915594E-001  6.254294557E+002  6.356899437E+003  2.307060216E+001         1
      33       1  3.541230000E+003         1    1         1       283  5.017714928E-001  4.252952198E-001  4.837056828E-001  6.254428732E+002  6.356323805E+003  2.305793975E+001         1
      34       1  3.648540000E+003         1    1         1       283  5.018251622E-001  4.229902401E-001  4.832202937E-001  6.254562905E+002  6.355747560E+003  2.304529004E+001         1
      35       1  3.755850000E+003         1    1         1       283  5.018788308E-001  4.206828069E-001  4.827353918E-001  6.254697077E+002  6.355170702E+003  2.303265302E+001         1
      36       1  3.863160000E+003         1    1         1       283  5.019324987E-001  4.183729174E-001  4.822509764E-001  6.254831247E+002  6.354593229E+003  2.302002869E+001         1
      37       1  3.970470000E+003         1    1         1       283  5.019861659E-001  4.160605690E-001  4.817670471E-001  6.254965415E+002  6.354015142E+003  2.300741702E+001         1
      38       1  4.077780000E+003         1    1         1       283  5.020398324E-001  4.137457592E-001  4.812836035E-001  6.255099581E+002  6.353436440E+003  2.299481801E+001         1
      39       1  4.185090000E+003         1    1         1       283  5.020934982E-001  4.114284853E-001  4.808006450E-001  6.255233745E+002  6.352857121E+003  2.298223164E+001         1
      40       1  4.292400000E+003         1    1         1       283  5.021471632E-001  4.091087447E-001  4.803181711E-001  6.255367908E+002  6.352277186E+003  2.296965790E+001         1
      41       1  4.399710000E+003         1    1         1       283  5.022008276E-001  4.067865348E-001  4.798361813E-001  6.255502069E+002  6.351696634E+003  2.295709678E+001         1
      42       1  4.507020000E+003         1    1         1       283  5.022544912E-001  4.044618529E-001  4.793546753E-001  6.255636228E+002  6.351115463E+003  2.294454827E+001         1
      43       1  4.614330000E+003         1    1         1       283  5.023081541E-001  4.021346965E-001  4.788736524E-001  6.255770385E+002  6.350533674E+003  2.293201234E+001         1
      44       1  4.721640000E+003         1    1         1       283  5.023618163E-001  3.998050628E-001  4.783931122E-001  6.255904541E+002  6.349951266E+003  2.291948900E+001         1
      45       1  4.828950000E+003         1    1         1       283  5.024154777E-001  3.974729492E-001  4.779130542E-001  6.256038694E+002  6.349368237E+003  2.290697822E+001         1
      46       1  4.936260000E+003         1    1         1       283  5.024691384E-001  3.951383531E-001  4.774334780E-001  6.256172846E+002  6.348784588E+003  2.289448000E+001         1
      47       1  5.043570000E+003         1    1         1       283  5.025227985E-001  3.928012719E-001  4.769543830E-001  6.256306996E+002  6.348200318E+003  2.288199432E+001         1
      48       1  5.150880000E+003         1    1         1       283  5.025764577E-001  3.904617029E-001  4.764757687E-001  6.256441144E+002  6.347615426E+003  2.286952117E+001         1
      49       1  5.258190000E+003         1    1         1       283  5.026301163E-001  3.881196435E-001  4.759976348E-001  6.256575291E+002  6.347029911E+003  2.285706053E+001         1
      50       1  5.365500000E+003         1    1         1       283  5.026837742E-001  3.857750909E-001  4.755199806E-001  6.256709435E+002  6.346443773E+003  2.284461240E+001         1
      51       1  5.472810000E+003         1    1         1       283  5.027374313E-001  3.834280427E-001  4.750428058E-001  6.256843578E+002  6.345857011E+003  2.283217676E+001         1
      52       1  5.580120000E+003         1    1         1       283  5.027910877E-001  3.810784960E-001  4.745661097E-001  6.256977719E+002  6.345269624E+003  2.281975360E+001         1
      53       1  5.687430000E+003         1    1         1       283  5.028447434E-001  3.787264482E-001  4.740898921E-001  6.257111859E+002  6.344681612E+003  2.280734290E+001         1
      54       1  5.794740000E+003         1    1         1       283  5.028983984E-001  3.763718968E-001  4.736141523E-001  6.257245996E+002  6.344092974E+003  2.279494466E+001         1
      55       1  5.902050000E+003         1    1         1       283  5.029520527E-001  3.740148389E-001  4.731388899E-001  6.257380132E+002  6.343503710E+003  2.278255886E+001         1
      56       1  6.009360000E+003         1    1         1       283  5.030057062E-001  3.716552720E-001  4.726641044E-001  6.257514266E+002  6.342913818E+003  2.277018549E+001         1
      57       1  6.116670000E+003         1    1         1       283  5.030593590E-001  3.692931934E-001  4.721897954E-001  6.257648398E+002  6.342323298E+003  2.275782454E+001         1
      58       1  6.223980000E+003         1    1         1       283  5.031130111E-001  3.669286004E-001  4.717159623E-001  6.257782528E+002  6.341732150E+003  2.274547599E+001         1
      59       1  6.331290000E+003         1    1         1       283  5.031666625E-001  3.645614903E-001  4.712426048E-001  6.257916656E+002  6.341140373E+003  2.273313983E+001         1
      60       1  6.438600000E+003         1    1         1       283  5.032203132E-001  3.621918604E-001  4.707697222E-001  6.258050783E+002  6.340547965E+003  2.272081605E+001         1
      61       1  6.545910000E+003         1    1         1       283  5.032739631E-001  3.598197081E-001  4.702973141E-001  6.258184908E+002  6.339954927E+003  2.270850464E+001         1
      62       1  6.653220000E+003         1    1         1       283  5.033276123E-001  3.574450307E-001  4.698253801E-001  6.258319031E+002  6.339361258E+003  2.269620558E+001         1
      63       1  6.760530000E+003         1    1         1       283  5.033812608E-001  3.550678255E-001  4.693539197E-001  6.258453152E+002  6.338766956E+003  2.268391887E+001         1
      64       1  6.867840000E+003         1    1         1       283  5.034349086E-001  3.526880897E-001  4.688829323E-001  6.258587272E+002  6.338172022E+003  2.267164448E+001         1
      65       1  6.975150000E+003         1    1         1       283  5.034885557E-001  3.503058208E-001  4.684124176E-001  6.258721389E+002  6.337576455E+003  2.265938241E+001         1
      66       1  7.082460000E+003         1    1         1       283  5.035422020E-001  3.479210160E-001  4.679423751E-001  6.258855505E+002  6.336980254E+003  2.264713264E+001         1
      67       1  7.189770000E+003         1    1         1       283  5.035958477E-001  3.455336726E-001  4.674728042E-001  6.258989619E+002  6.336383418E+003  2.263489517E+001         1
      68       1  7.297080000E+003         1    1         1       283  5.036494926E-001  3.431437879E-001  4.670037046E-001  6.259123731E+002  6.335785947E+003  2.262266998E+001         1
      69       1  7.404390000E+003         1    1         1       283  5.037031368E-001  3.407513592E-001  4.665350756E-001  6.259257842E+002  6.335187840E+003  2.261045705E+001         1
      70       1  7.511700000E+003         1    1         1       283  5.037567802E-001  3.383563838E-001  4.660669170E-001  6.259391951E+002  6.334589096E+003  2.259825638E+001         1
      71       1  7.619010000E+003         1    1         1       283  5.038104230E-001  3.359588589E-001  4.655992281E-001  6.259526057E+002  6.333989715E+003  2.258606796E+001         1
      72       1  7.726320000E+003         1    1         1       283  5.038640650E-001  3.335587820E-001  4.651320085E-001  6.259660163E+002  6.333389695E+003  2.257389176E+001         1
      73       1  7.833630000E+003         1    1         1       283  5.039177063E-001  3.311561501E-001  4.646652578E-001  6.259794266E+002  6.332789038E+003  2.256172778E+001         1
      74       1  7.940940000E+003         1    1         1       283  5.039713469E-001  3.287509608E-001  4.641989754E-001  6.259928367E+002  6.332187740E+003  2.254957601E+001         1
      75       1  8.048250000E+003         1    1         1       283  5.040249868E-001  3.263432111E-001  4.637331610E-001  6.260062467E+002  6.331585803E+003  2.253743644E+001         1
      76       1  8.155560000E+003         1    1         1       283  5.040786260E-001  3.239328984E-001  4.632678140E-001  6.260196565E+002  6.330983225E+003  2.252530904E+001         1
      77       1  8.262870000E+003         1    1         1       283  5.041322644E-001  3.215200200E-001  4.628029339E-001  6.260330661E+002  6.330380005E+003  2.251319382E+001         1
      78       1  8.370180000E+003         1    1         1       283  5.041859021E-001  3.191045731E-001  4.623385204E-001  6.260464755E+002  6.329776143E+003  2.250109075E+001         1
      79       1  8.477490000E+003         1    1         1       283  5.042395391E-001  3.166865550E-001  4.618745729E-001  6.260598848E+002  6.329171639E+003  2.248899983E+001         1
      80       1  8.584800000E+003         1    1         1       283  5.042931754E-001  3.142659629E-001  4.614110909E-001  6.260732939E+002  6.328566491E+003  2.247692104E+001         1
      81       1  8.692110000E+003         1    1         1       283  5.043468110E-001  3.118427941E-001  4.609480741E-001  6.260867027E+002  6.327960699E+003  2.246485437E+001         1
      82       1  8.799420000E+003         1    1         1       283  5.044004458E-001  3.094170460E-001  4.604855218E-001  6.261001115E+002  6.327354261E+003  2.245279981E+001         1
      83       1  8.906730000E+003         1    1         1       283  5.044540799E-001  3.069887156E-001  4.600234338E-001  6.261135200E+002  6.326747179E+003  2.244075734E+001         1
      84       1  9.014040000E+003         1    1         1       283  5.045077133E-001  3.045578003E-001  4.595618094E-001  6.261269283E+002  6.326139450E+003  2.242872696E+001         1
      85       1  9.121350000E+003         1    1         1       283  5.045613460E-001  3.021242974E-001  4.591006483E-001  6.261403365E+002  6.325531074E+003  2.241670866E+001         1
      86       1  9.228660000E+003         1    1         1       283  5.046149780E-001  2.996882040E-001  4.586399499E-001  6.261537445E+002  6.324922051E+003  2.240470241E+001         1
      87       1  9.335970000E+003         1    1         1       283  5.046686092E-001  2.972495174E-001  4.581797138E-001  6.261671523E+002  6.324312379E+003  2.239270821E+001         1
      88       1  9.443280000E+003         1    1         1       283  5.047222398E-001  2.948082349E-001  4.577199396E-001  6.261805599E+002  6.323702059E+003  2.238072605E+001         1
      89       1  9.550590000E+003         1    1         1       283  5.047758696E-001  2.923643537E-001  4.572606267E-001  6.261939674E+002  6.323091088E+003  2.236875591E+001         1
      90       1  9.657900000E+003         1    1         1       283  5.048294987E-001  2.899178710E-001  4.568017748E-001  6.262073747E+002  6.322479468E+003  2.235679778E+001         1
      91       1  9.765210000E+003         1    1         1       283  5.048831270E-001  2.874687840E-001  4.563433833E-001  6.262207818E+002  6.321867196E+003  2.234485165E+001         1
      92       1  9.872520000E+003         1    1         1       283  5.049367547E-001  2.850170900E-001  4.558854518E-001  6.262341887E+002  6.321254273E+003  2.233291751E+001         1
      93       1  9.979830000E+003         1    1         1       283  5.049903816E-001  2.825627863E-001  4.554279798E-001  6.262475954E+002  6.320640697E+003  2.232099535E+001         1
      94       4  1.008714000E+004         1    1         1       283  5.050442828E-001  2.801244763E-001  4.545705829E-001  6.262610707E+002  6.320031119E+003  2.261932355E+001         1
      95       8  1.019445000E+004         1    1         1       283  5.051044344E-001  2.776678178E-001  4.536344379E-001  6.262761086E+002  6.319416954E+003  2.288744049E+001         1
      96      11  1.030176000E+004         1    1         1       283  5.051724275E-001  2.750850895E-001  4.534515963E-001  6.262931069E+002  6.318771272E+003  2.253889150E+001         1
      97      15  1.040907000E+004         1    1         1       283  5.052375386E-001  2.724366309E-001  4.529552936E-001  6.263093847E+002  6.318109158E+003  2.251676729E+001         1
      98      18  1.051638000E+004         1    1         1       283  5.052996754E-001  2.698354738E-001  4.518757756E-001  6.263249188E+002  6.317458868E+003  2.286225579E+001         1
      99      22  1.062369000E+004         1    1         1       283  5.053680259E-001  2.672012410E-001  4.514406000E-001  6.263420065E+002  6.316800310E+003  2.264029850E+001         1
     100      25  1.073100000E+004         1    1         1       283  5.054367474E-001  2.644929003E-001  4.512056549E-001  6.263591869E+002  6.316123225E+003  2.239386838E+001         1
