BEGIN Options
  TIME_UNITS  days
END Options

BEGIN Dimensions
  NPER  732
END Dimensions

BEGIN PERIODDATA
       10000.0000  1       1.00000000  PERLEN NSTP TSMULT
       1.00000000  1       1.00000000  PERLEN NSTP TSMULT
       1.00000000  1       1.00000000  PERLEN NSTP TSMULT
       1.00000000  1       1.00000000  PERLEN NSTP TSMULT
       1.00000000  1       1.00000000  PERLEN NSTP TSMULT
       1.00000000  1       1.00000000  PERLEN NSTP TSMULT
       1.00000000  1       1.00000000  PERLEN NSTP TSMULT
       1.00000000  1       1.00000000  PERLEN NSTP TSMULT
       1.00000000  1       1.00000000  PERLEN NSTP TSMULT
       1.00000000  1       1.00000000  PERLEN NSTP TSMULT
       1.00000000  1       1.00000000  PERLEN NSTP TSMULT
       1.00000000  1       1.00000000  PERLEN NSTP TSMULT
       1.00000000  1       1.00000000  PERLEN NSTP TSMULT
       1.00000000  1       1.00000000  PERLEN NSTP TSMULT
       1.00000000  1       1.00000000  PERLEN NSTP TSMULT
       1.00000000  1       1.00000000  PERLEN NSTP TSMULT
       1.00000000  1       1.00000000  PERLEN NSTP TSMULT
       1.00000000  1       1.00000000  PERLEN NSTP TSMULT
       1.00000000  1       1.00000000  PERLEN NSTP TSMULT
       1.00000000  1       1.00000000  PERLEN NSTP TSMULT
       1.00000000  1       1.00000000  PERLEN NSTP TSMULT
       1.00000000  1       1.00000000  PERLEN NSTP TSMULT
       1.00000000  1       1.00000000  PERLEN NSTP TSMULT
       1.00000000  1       1.00000000  PERLEN NSTP TSMULT
       1.00000000  1       1.00000000  PERLEN NSTP TSMULT
       1.00000000  1       1.00000000  PERLEN NSTP TSMULT
       1.00000000  1       1.00000000  PERLEN NSTP TSMULT
       1.00000000  1       1.00000000  PERLEN NSTP TSMULT
       1.00000000  1       1.00000000  PERLEN NSTP TSMULT
       1.00000000  1       1.00000000  PERLEN NSTP TSMULT
       1.00000000  1       1.00000000  PERLEN NSTP TSMULT
       1.00000000  1       1.00000000  PERLEN NSTP TSMULT
       1.00000000  1       1.00000000  PERLEN NSTP TSMULT
       1.00000000  1       1.00000000  PERLEN NSTP TSMULT
       1.00000000  1       1.00000000  PERLEN NSTP TSMULT
       1.00000000  1       1.00000000  PERLEN NSTP TSMULT
       1.00000000  1       1.00000000  PERLEN NSTP TSMULT
       1.00000000  1       1.00000000  PERLEN NSTP TSMULT
       1.00000000  1       1.00000000  PERLEN NSTP TSMULT
       1.00000000  1       1.00000000  PERLEN NSTP TSMULT
       1.00000000  1       1.00000000  PERLEN NSTP TSMULT
       1.00000000  1       1.00000000  PERLEN NSTP TSMULT
       1.00000000  1       1.00000000  PERLEN NSTP TSMULT
       1.00000000  1       1.00000000  PERLEN NSTP TSMULT
       1.00000000  1       1.00000000  PERLEN NSTP TSMULT
       1.00000000  1       1.00000000  PERLEN NSTP TSMULT
       1.00000000  1       1.00000000  PERLEN NSTP TSMULT
       1.00000000  1       1.00000000  PERLEN NSTP TSMULT
       1.00000000  1       1.00000000  PERLEN NSTP TSMULT
       1.00000000  1       1.00000000  PERLEN NSTP TSMULT
       1.00000000  1       1.00000000  PERLEN NSTP TSMULT
       1.00000000  1       1.00000000  PERLEN NSTP TSMULT
       1.00000000  1       1.00000000  PERLEN NSTP TSMULT
       1.00000000  1       1.00000000  PERLEN NSTP TSMULT
       1.00000000  1       1.00000000  PERLEN NSTP TSMULT
       1.00000000  1       1.00000000  PERLEN NSTP TSMULT
       1.00000000  1       1.00000000  PERLEN NSTP TSMULT
       1.00000000  1       1.00000000  PERLEN NSTP TSMULT
       1.00000000  1       1.00000000  PERLEN NSTP TSMULT
       1.00000000  1       1.00000000  PERLEN NSTP TSMULT
       1.00000000  1       1.00000000  PERLEN NSTP TSMULT
       1.00000000  1       1.00000000  PERLEN NSTP TSMULT
       1.00000000  1       1.00000000  PERLEN NSTP TSMULT
       1.00000000  1       1.00000000  PERLEN NSTP TSMULT
       1.00000000  1       1.00000000  PERLEN NSTP TSMULT
       1.00000000  1       1.00000000  PERLEN NSTP TSMULT
       1.00000000  1       1.00000000  PERLEN NSTP TSMULT
       1.00000000  1       1.00000000  PERLEN NSTP TSMULT
       1.00000000  1       1.00000000  PERLEN NSTP TSMULT
       1.00000000  1       1.00000000  PERLEN NSTP TSMULT
       1.00000000  1       1.00000000  PERLEN NSTP TSMULT
       1.00000000  1       1.00000000  PERLEN NSTP TSMULT
       1.00000000  1       1.00000000  PERLEN NSTP TSMULT
       1.00000000  1       1.00000000  PERLEN NSTP TSMULT
       1.00000000  1       1.00000000  PERLEN NSTP TSMULT
       1.00000000  1       1.00000000  PERLEN NSTP TSMULT
       1.00000000  1       1.00000000  PERLEN NSTP TSMULT
       1.00000000  1       1.00000000  PERLEN NSTP TSMULT
       1.00000000  1       1.00000000  PERLEN NSTP TSMULT
       1.00000000  1       1.00000000  PERLEN NSTP TSMULT
       1.00000000  1       1.00000000  PERLEN NSTP TSMULT
       1.00000000  1       1.00000000  PERLEN NSTP TSMULT
       1.00000000  1       1.00000000  PERLEN NSTP TSMULT
       1.00000000  1       1.00000000  PERLEN NSTP TSMULT
       1.00000000  1       1.00000000  PERLEN NSTP TSMULT
       1.00000000  1       1.00000000  PERLEN NSTP TSMULT
       1.00000000  1       1.00000000  PERLEN NSTP TSMULT
       1.00000000  1       1.00000000  PERLEN NSTP TSMULT
       1.00000000  1       1.00000000  PERLEN NSTP TSMULT
       1.00000000  1       1.00000000  PERLEN NSTP TSMULT
       1.00000000  1       1.00000000  PERLEN NSTP TSMULT
       1.00000000  1       1.00000000  PERLEN NSTP TSMULT
       1.00000000  1       1.00000000  PERLEN NSTP TSMULT
       1.00000000  1       1.00000000  PERLEN NSTP TSMULT
       1.00000000  1       1.00000000  PERLEN NSTP TSMULT
       1.00000000  1       1.00000000  PERLEN NSTP TSMULT
       1.00000000  1       1.00000000  PERLEN NSTP TSMULT
       1.00000000  1       1.00000000  PERLEN NSTP TSMULT
       1.00000000  1       1.00000000  PERLEN NSTP TSMULT
       1.00000000  1       1.00000000  PERLEN NSTP TSMULT
       1.00000000  1       1.00000000  PERLEN NSTP TSMULT
       1.00000000  1       1.00000000  PERLEN NSTP TSMULT
       1.00000000  1       1.00000000  PERLEN NSTP TSMULT
       1.00000000  1       1.00000000  PERLEN NSTP TSMULT
       1.00000000  1       1.00000000  PERLEN NSTP TSMULT
       1.00000000  1       1.00000000  PERLEN NSTP TSMULT
       1.00000000  1       1.00000000  PERLEN NSTP TSMULT
       1.00000000  1       1.00000000  PERLEN NSTP TSMULT
       1.00000000  1       1.00000000  PERLEN NSTP TSMULT
       1.00000000  1       1.00000000  PERLEN NSTP TSMULT
       1.00000000  1       1.00000000  PERLEN NSTP TSMULT
       1.00000000  1       1.00000000  PERLEN NSTP TSMULT
       1.00000000  1       1.00000000  PERLEN NSTP TSMULT
       1.00000000  1       1.00000000  PERLEN NSTP TSMULT
       1.00000000  1       1.00000000  PERLEN NSTP TSMULT
       1.00000000  1       1.00000000  PERLEN NSTP TSMULT
       1.00000000  1       1.00000000  PERLEN NSTP TSMULT
       1.00000000  1       1.00000000  PERLEN NSTP TSMULT
       1.00000000  1       1.00000000  PERLEN NSTP TSMULT
       1.00000000  1       1.00000000  PERLEN NSTP TSMULT
       1.00000000  1       1.00000000  PERLEN NSTP TSMULT
       1.00000000  1       1.00000000  PERLEN NSTP TSMULT
       1.00000000  1       1.00000000  PERLEN NSTP TSMULT
       1.00000000  1       1.00000000  PERLEN NSTP TSMULT
       1.00000000  1       1.00000000  PERLEN NSTP TSMULT
       1.00000000  1       1.00000000  PERLEN NSTP TSMULT
       1.00000000  1       1.00000000  PERLEN NSTP TSMULT
       1.00000000  1       1.00000000  PERLEN NSTP TSMULT
       1.00000000  1       1.00000000  PERLEN NSTP TSMULT
       1.00000000  1       1.00000000  PERLEN NSTP TSMULT
       1.00000000  1       1.00000000  PERLEN NSTP TSMULT
       1.00000000  1       1.00000000  PERLEN NSTP TSMULT
       1.00000000  1       1.00000000  PERLEN NSTP TSMULT
       1.00000000  1       1.00000000  PERLEN NSTP TSMULT
       1.00000000  1       1.00000000  PERLEN NSTP TSMULT
       1.00000000  1       1.00000000  PERLEN NSTP TSMULT
       1.00000000  1       1.00000000  PERLEN NSTP TSMULT
       1.00000000  1       1.00000000  PERLEN NSTP TSMULT
       1.00000000  1       1.00000000  PERLEN NSTP TSMULT
       1.00000000  1       1.00000000  PERLEN NSTP TSMULT
       1.00000000  1       1.00000000  PERLEN NSTP TSMULT
       1.00000000  1       1.00000000  PERLEN NSTP TSMULT
       1.00000000  1       1.00000000  PERLEN NSTP TSMULT
       1.00000000  1       1.00000000  PERLEN NSTP TSMULT
       1.00000000  1       1.00000000  PERLEN NSTP TSMULT
       1.00000000  1       1.00000000  PERLEN NSTP TSMULT
       1.00000000  1       1.00000000  PERLEN NSTP TSMULT
       1.00000000  1       1.00000000  PERLEN NSTP TSMULT
       1.00000000  1       1.00000000  PERLEN NSTP TSMULT
       1.00000000  1       1.00000000  PERLEN NSTP TSMULT
       1.00000000  1       1.00000000  PERLEN NSTP TSMULT
       1.00000000  1       1.00000000  PERLEN NSTP TSMULT
       1.00000000  1       1.00000000  PERLEN NSTP TSMULT
       1.00000000  1       1.00000000  PERLEN NSTP TSMULT
       1.00000000  1       1.00000000  PERLEN NSTP TSMULT
       1.00000000  1       1.00000000  PERLEN NSTP TSMULT
       1.00000000  1       1.00000000  PERLEN NSTP TSMULT
       1.00000000  1       1.00000000  PERLEN NSTP TSMULT
       1.00000000  1       1.00000000  PERLEN NSTP TSMULT
       1.00000000  1       1.00000000  PERLEN NSTP TSMULT
       1.00000000  1       1.00000000  PERLEN NSTP TSMULT
       1.00000000  1       1.00000000  PERLEN NSTP TSMULT
       1.00000000  1       1.00000000  PERLEN NSTP TSMULT
       1.00000000  1       1.00000000  PERLEN NSTP TSMULT
       1.00000000  1       1.00000000  PERLEN NSTP TSMULT
       1.00000000  1       1.00000000  PERLEN NSTP TSMULT
       1.00000000  1       1.00000000  PERLEN NSTP TSMULT
       1.00000000  1       1.00000000  PERLEN NSTP TSMULT
       1.00000000  1       1.00000000  PERLEN NSTP TSMULT
       1.00000000  1       1.00000000  PERLEN NSTP TSMULT
       1.00000000  1       1.00000000  PERLEN NSTP TSMULT
       1.00000000  1       1.00000000  PERLEN NSTP TSMULT
       1.00000000  1       1.00000000  PERLEN NSTP TSMULT
       1.00000000  1       1.00000000  PERLEN NSTP TSMULT
       1.00000000  1       1.00000000  PERLEN NSTP TSMULT
       1.00000000  1       1.00000000  PERLEN NSTP TSMULT
       1.00000000  1       1.00000000  PERLEN NSTP TSMULT
       1.00000000  1       1.00000000  PERLEN NSTP TSMULT
       1.00000000  1       1.00000000  PERLEN NSTP TSMULT
       1.00000000  1       1.00000000  PERLEN NSTP TSMULT
       1.00000000  1       1.00000000  PERLEN NSTP TSMULT
       1.00000000  1       1.00000000  PERLEN NSTP TSMULT
       1.00000000  1       1.00000000  PERLEN NSTP TSMULT
       1.00000000  1       1.00000000  PERLEN NSTP TSMULT
       1.00000000  1       1.00000000  PERLEN NSTP TSMULT
       1.00000000  1       1.00000000  PERLEN NSTP TSMULT
       1.00000000  1       1.00000000  PERLEN NSTP TSMULT
       1.00000000  1       1.00000000  PERLEN NSTP TSMULT
       1.00000000  1       1.00000000  PERLEN NSTP TSMULT
       1.00000000  1       1.00000000  PERLEN NSTP TSMULT
       1.00000000  1       1.00000000  PERLEN NSTP TSMULT
       1.00000000  1       1.00000000  PERLEN NSTP TSMULT
       1.00000000  1       1.00000000  PERLEN NSTP TSMULT
       1.00000000  1       1.00000000  PERLEN NSTP TSMULT
       1.00000000  1       1.00000000  PERLEN NSTP TSMULT
       1.00000000  1       1.00000000  PERLEN NSTP TSMULT
       1.00000000  1       1.00000000  PERLEN NSTP TSMULT
       1.00000000  1       1.00000000  PERLEN NSTP TSMULT
       1.00000000  1       1.00000000  PERLEN NSTP TSMULT
       1.00000000  1       1.00000000  PERLEN NSTP TSMULT
       1.00000000  1       1.00000000  PERLEN NSTP TSMULT
       1.00000000  1       1.00000000  PERLEN NSTP TSMULT
       1.00000000  1       1.00000000  PERLEN NSTP TSMULT
       1.00000000  1       1.00000000  PERLEN NSTP TSMULT
       1.00000000  1       1.00000000  PERLEN NSTP TSMULT
       1.00000000  1       1.00000000  PERLEN NSTP TSMULT
       1.00000000  1       1.00000000  PERLEN NSTP TSMULT
       1.00000000  1       1.00000000  PERLEN NSTP TSMULT
       1.00000000  1       1.00000000  PERLEN NSTP TSMULT
       1.00000000  1       1.00000000  PERLEN NSTP TSMULT
       1.00000000  1       1.00000000  PERLEN NSTP TSMULT
       1.00000000  1       1.00000000  PERLEN NSTP TSMULT
       1.00000000  1       1.00000000  PERLEN NSTP TSMULT
       1.00000000  1       1.00000000  PERLEN NSTP TSMULT
       1.00000000  1       1.00000000  PERLEN NSTP TSMULT
       1.00000000  1       1.00000000  PERLEN NSTP TSMULT
       1.00000000  1       1.00000000  PERLEN NSTP TSMULT
       1.00000000  1       1.00000000  PERLEN NSTP TSMULT
       1.00000000  1       1.00000000  PERLEN NSTP TSMULT
       1.00000000  1       1.00000000  PERLEN NSTP TSMULT
       1.00000000  1       1.00000000  PERLEN NSTP TSMULT
       1.00000000  1       1.00000000  PERLEN NSTP TSMULT
       1.00000000  1       1.00000000  PERLEN NSTP TSMULT
       1.00000000  1       1.00000000  PERLEN NSTP TSMULT
       1.00000000  1       1.00000000  PERLEN NSTP TSMULT
       1.00000000  1       1.00000000  PERLEN NSTP TSMULT
       1.00000000  1       1.00000000  PERLEN NSTP TSMULT
       1.00000000  1       1.00000000  PERLEN NSTP TSMULT
       1.00000000  1       1.00000000  PERLEN NSTP TSMULT
       1.00000000  1       1.00000000  PERLEN NSTP TSMULT
       1.00000000  1       1.00000000  PERLEN NSTP TSMULT
       1.00000000  1       1.00000000  PERLEN NSTP TSMULT
       1.00000000  1       1.00000000  PERLEN NSTP TSMULT
       1.00000000  1       1.00000000  PERLEN NSTP TSMULT
       1.00000000  1       1.00000000  PERLEN NSTP TSMULT
       1.00000000  1       1.00000000  PERLEN NSTP TSMULT
       1.00000000  1       1.00000000  PERLEN NSTP TSMULT
       1.00000000  1       1.00000000  PERLEN NSTP TSMULT
       1.00000000  1       1.00000000  PERLEN NSTP TSMULT
       1.00000000  1       1.00000000  PERLEN NSTP TSMULT
       1.00000000  1       1.00000000  PERLEN NSTP TSMULT
       1.00000000  1       1.00000000  PERLEN NSTP TSMULT
       1.00000000  1       1.00000000  PERLEN NSTP TSMULT
       1.00000000  1       1.00000000  PERLEN NSTP TSMULT
       1.00000000  1       1.00000000  PERLEN NSTP TSMULT
       1.00000000  1       1.00000000  PERLEN NSTP TSMULT
       1.00000000  1       1.00000000  PERLEN NSTP TSMULT
       1.00000000  1       1.00000000  PERLEN NSTP TSMULT
       1.00000000  1       1.00000000  PERLEN NSTP TSMULT
       1.00000000  1       1.00000000  PERLEN NSTP TSMULT
       1.00000000  1       1.00000000  PERLEN NSTP TSMULT
       1.00000000  1       1.00000000  PERLEN NSTP TSMULT
       1.00000000  1       1.00000000  PERLEN NSTP TSMULT
       1.00000000  1       1.00000000  PERLEN NSTP TSMULT
       1.00000000  1       1.00000000  PERLEN NSTP TSMULT
       1.00000000  1       1.00000000  PERLEN NSTP TSMULT
       1.00000000  1       1.00000000  PERLEN NSTP TSMULT
       1.00000000  1       1.00000000  PERLEN NSTP TSMULT
       1.00000000  1       1.00000000  PERLEN NSTP TSMULT
       1.00000000  1       1.00000000  PERLEN NSTP TSMULT
       1.00000000  1       1.00000000  PERLEN NSTP TSMULT
       1.00000000  1       1.00000000  PERLEN NSTP TSMULT
       1.00000000  1       1.00000000  PERLEN NSTP TSMULT
       1.00000000  1       1.00000000  PERLEN NSTP TSMULT
       1.00000000  1       1.00000000  PERLEN NSTP TSMULT
       1.00000000  1       1.00000000  PERLEN NSTP TSMULT
       1.00000000  1       1.00000000  PERLEN NSTP TSMULT
       1.00000000  1       1.00000000  PERLEN NSTP TSMULT
       1.00000000  1       1.00000000  PERLEN NSTP TSMULT
       1.00000000  1       1.00000000  PERLEN NSTP TSMULT
       1.00000000  1       1.00000000  PERLEN NSTP TSMULT
       1.00000000  1       1.00000000  PERLEN NSTP TSMULT
       1.00000000  1       1.00000000  PERLEN NSTP TSMULT
       1.00000000  1       1.00000000  PERLEN NSTP TSMULT
       1.00000000  1       1.00000000  PERLEN NSTP TSMULT
       1.00000000  1       1.00000000  PERLEN NSTP TSMULT
       1.00000000  1       1.00000000  PERLEN NSTP TSMULT
       1.00000000  1       1.00000000  PERLEN NSTP TSMULT
       1.00000000  1       1.00000000  PERLEN NSTP TSMULT
       1.00000000  1       1.00000000  PERLEN NSTP TSMULT
       1.00000000  1       1.00000000  PERLEN NSTP TSMULT
       1.00000000  1       1.00000000  PERLEN NSTP TSMULT
       1.00000000  1       1.00000000  PERLEN NSTP TSMULT
       1.00000000  1       1.00000000  PERLEN NSTP TSMULT
       1.00000000  1       1.00000000  PERLEN NSTP TSMULT
       1.00000000  1       1.00000000  PERLEN NSTP TSMULT
       1.00000000  1       1.00000000  PERLEN NSTP TSMULT
       1.00000000  1       1.00000000  PERLEN NSTP TSMULT
       1.00000000  1       1.00000000  PERLEN NSTP TSMULT
       1.00000000  1       1.00000000  PERLEN NSTP TSMULT
       1.00000000  1       1.00000000  PERLEN NSTP TSMULT
       1.00000000  1       1.00000000  PERLEN NSTP TSMULT
       1.00000000  1       1.00000000  PERLEN NSTP TSMULT
       1.00000000  1       1.00000000  PERLEN NSTP TSMULT
       1.00000000  1       1.00000000  PERLEN NSTP TSMULT
       1.00000000  1       1.00000000  PERLEN NSTP TSMULT
       1.00000000  1       1.00000000  PERLEN NSTP TSMULT
       1.00000000  1       1.00000000  PERLEN NSTP TSMULT
       1.00000000  1       1.00000000  PERLEN NSTP TSMULT
       1.00000000  1       1.00000000  PERLEN NSTP TSMULT
       1.00000000  1       1.00000000  PERLEN NSTP TSMULT
       1.00000000  1       1.00000000  PERLEN NSTP TSMULT
       1.00000000  1       1.00000000  PERLEN NSTP TSMULT
       1.00000000  1       1.00000000  PERLEN NSTP TSMULT
       1.00000000  1       1.00000000  PERLEN NSTP TSMULT
       1.00000000  1       1.00000000  PERLEN NSTP TSMULT
       1.00000000  1       1.00000000  PERLEN NSTP TSMULT
       1.00000000  1       1.00000000  PERLEN NSTP TSMULT
       1.00000000  1       1.00000000  PERLEN NSTP TSMULT
       1.00000000  1       1.00000000  PERLEN NSTP TSMULT
       1.00000000  1       1.00000000  PERLEN NSTP TSMULT
       1.00000000  1       1.00000000  PERLEN NSTP TSMULT
       1.00000000  1       1.00000000  PERLEN NSTP TSMULT
       1.00000000  1       1.00000000  PERLEN NSTP TSMULT
       1.00000000  1       1.00000000  PERLEN NSTP TSMULT
       1.00000000  1       1.00000000  PERLEN NSTP TSMULT
       1.00000000  1       1.00000000  PERLEN NSTP TSMULT
       1.00000000  1       1.00000000  PERLEN NSTP TSMULT
       1.00000000  1       1.00000000  PERLEN NSTP TSMULT
       1.00000000  1       1.00000000  PERLEN NSTP TSMULT
       1.00000000  1       1.00000000  PERLEN NSTP TSMULT
       1.00000000  1       1.00000000  PERLEN NSTP TSMULT
       1.00000000  1       1.00000000  PERLEN NSTP TSMULT
       1.00000000  1       1.00000000  PERLEN NSTP TSMULT
       1.00000000  1       1.00000000  PERLEN NSTP TSMULT
       1.00000000  1       1.00000000  PERLEN NSTP TSMULT
       1.00000000  1       1.00000000  PERLEN NSTP TSMULT
       1.00000000  1       1.00000000  PERLEN NSTP TSMULT
       1.00000000  1       1.00000000  PERLEN NSTP TSMULT
       1.00000000  1       1.00000000  PERLEN NSTP TSMULT
       1.00000000  1       1.00000000  PERLEN NSTP TSMULT
       1.00000000  1       1.00000000  PERLEN NSTP TSMULT
       1.00000000  1       1.00000000  PERLEN NSTP TSMULT
       1.00000000  1       1.00000000  PERLEN NSTP TSMULT
       1.00000000  1       1.00000000  PERLEN NSTP TSMULT
       1.00000000  1       1.00000000  PERLEN NSTP TSMULT
       1.00000000  1       1.00000000  PERLEN NSTP TSMULT
       1.00000000  1       1.00000000  PERLEN NSTP TSMULT
       1.00000000  1       1.00000000  PERLEN NSTP TSMULT
       1.00000000  1       1.00000000  PERLEN NSTP TSMULT
       1.00000000  1       1.00000000  PERLEN NSTP TSMULT
       1.00000000  1       1.00000000  PERLEN NSTP TSMULT
       1.00000000  1       1.00000000  PERLEN NSTP TSMULT
       1.00000000  1       1.00000000  PERLEN NSTP TSMULT
       1.00000000  1       1.00000000  PERLEN NSTP TSMULT
       1.00000000  1       1.00000000  PERLEN NSTP TSMULT
       1.00000000  1       1.00000000  PERLEN NSTP TSMULT
       1.00000000  1       1.00000000  PERLEN NSTP TSMULT
       1.00000000  1       1.00000000  PERLEN NSTP TSMULT
       1.00000000  1       1.00000000  PERLEN NSTP TSMULT
       1.00000000  1       1.00000000  PERLEN NSTP TSMULT
       1.00000000  1       1.00000000  PERLEN NSTP TSMULT
       1.00000000  1       1.00000000  PERLEN NSTP TSMULT
       1.00000000  1       1.00000000  PERLEN NSTP TSMULT
       1.00000000  1       1.00000000  PERLEN NSTP TSMULT
       1.00000000  1       1.00000000  PERLEN NSTP TSMULT
       1.00000000  1       1.00000000  PERLEN NSTP TSMULT
       1.00000000  1       1.00000000  PERLEN NSTP TSMULT
       1.00000000  1       1.00000000  PERLEN NSTP TSMULT
       1.00000000  1       1.00000000  PERLEN NSTP TSMULT
       1.00000000  1       1.00000000  PERLEN NSTP TSMULT
       1.00000000  1       1.00000000  PERLEN NSTP TSMULT
       1.00000000  1       1.00000000  PERLEN NSTP TSMULT
       1.00000000  1       1.00000000  PERLEN NSTP TSMULT
       1.00000000  1       1.00000000  PERLEN NSTP TSMULT
       1.00000000  1       1.00000000  PERLEN NSTP TSMULT
       1.00000000  1       1.00000000  PERLEN NSTP TSMULT
       1.00000000  1       1.00000000  PERLEN NSTP TSMULT
       1.00000000  1       1.00000000  PERLEN NSTP TSMULT
       1.00000000  1       1.00000000  PERLEN NSTP TSMULT
       1.00000000  1       1.00000000  PERLEN NSTP TSMULT
       1.00000000  1       1.00000000  PERLEN NSTP TSMULT
       1.00000000  1       1.00000000  PERLEN NSTP TSMULT
       1.00000000  1       1.00000000  PERLEN NSTP TSMULT
       1.00000000  1       1.00000000  PERLEN NSTP TSMULT
       1.00000000  1       1.00000000  PERLEN NSTP TSMULT
       1.00000000  1       1.00000000  PERLEN NSTP TSMULT
       1.00000000  1       1.00000000  PERLEN NSTP TSMULT
       1.00000000  1       1.00000000  PERLEN NSTP TSMULT
       1.00000000  1       1.00000000  PERLEN NSTP TSMULT
       1.00000000  1       1.00000000  PERLEN NSTP TSMULT
       1.00000000  1       1.00000000  PERLEN NSTP TSMULT
       1.00000000  1       1.00000000  PERLEN NSTP TSMULT
       1.00000000  1       1.00000000  PERLEN NSTP TSMULT
       1.00000000  1       1.00000000  PERLEN NSTP TSMULT
       1.00000000  1       1.00000000  PERLEN NSTP TSMULT
       1.00000000  1       1.00000000  PERLEN NSTP TSMULT
       1.00000000  1       1.00000000  PERLEN NSTP TSMULT
       1.00000000  1       1.00000000  PERLEN NSTP TSMULT
       1.00000000  1       1.00000000  PERLEN NSTP TSMULT
       1.00000000  1       1.00000000  PERLEN NSTP TSMULT
       1.00000000  1       1.00000000  PERLEN NSTP TSMULT
       1.00000000  1       1.00000000  PERLEN NSTP TSMULT
       1.00000000  1       1.00000000  PERLEN NSTP TSMULT
       1.00000000  1       1.00000000  PERLEN NSTP TSMULT
       1.00000000  1       1.00000000  PERLEN NSTP TSMULT
       1.00000000  1       1.00000000  PERLEN NSTP TSMULT
       1.00000000  1       1.00000000  PERLEN NSTP TSMULT
       1.00000000  1       1.00000000  PERLEN NSTP TSMULT
       1.00000000  1       1.00000000  PERLEN NSTP TSMULT
       1.00000000  1       1.00000000  PERLEN NSTP TSMULT
       1.00000000  1       1.00000000  PERLEN NSTP TSMULT
       1.00000000  1       1.00000000  PERLEN NSTP TSMULT
       1.00000000  1       1.00000000  PERLEN NSTP TSMULT
       1.00000000  1       1.00000000  PERLEN NSTP TSMULT
       1.00000000  1       1.00000000  PERLEN NSTP TSMULT
       1.00000000  1       1.00000000  PERLEN NSTP TSMULT
       1.00000000  1       1.00000000  PERLEN NSTP TSMULT
       1.00000000  1       1.00000000  PERLEN NSTP TSMULT
       1.00000000  1       1.00000000  PERLEN NSTP TSMULT
       1.00000000  1       1.00000000  PERLEN NSTP TSMULT
       1.00000000  1       1.00000000  PERLEN NSTP TSMULT
       1.00000000  1       1.00000000  PERLEN NSTP TSMULT
       1.00000000  1       1.00000000  PERLEN NSTP TSMULT
       1.00000000  1       1.00000000  PERLEN NSTP TSMULT
       1.00000000  1       1.00000000  PERLEN NSTP TSMULT
       1.00000000  1       1.00000000  PERLEN NSTP TSMULT
       1.00000000  1       1.00000000  PERLEN NSTP TSMULT
       1.00000000  1       1.00000000  PERLEN NSTP TSMULT
       1.00000000  1       1.00000000  PERLEN NSTP TSMULT
       1.00000000  1       1.00000000  PERLEN NSTP TSMULT
       1.00000000  1       1.00000000  PERLEN NSTP TSMULT
       1.00000000  1       1.00000000  PERLEN NSTP TSMULT
       1.00000000  1       1.00000000  PERLEN NSTP TSMULT
       1.00000000  1       1.00000000  PERLEN NSTP TSMULT
       1.00000000  1       1.00000000  PERLEN NSTP TSMULT
       1.00000000  1       1.00000000  PERLEN NSTP TSMULT
       1.00000000  1       1.00000000  PERLEN NSTP TSMULT
       1.00000000  1       1.00000000  PERLEN NSTP TSMULT
       1.00000000  1       1.00000000  PERLEN NSTP TSMULT
       1.00000000  1       1.00000000  PERLEN NSTP TSMULT
       1.00000000  1       1.00000000  PERLEN NSTP TSMULT
       1.00000000  1       1.00000000  PERLEN NSTP TSMULT
       1.00000000  1       1.00000000  PERLEN NSTP TSMULT
       1.00000000  1       1.00000000  PERLEN NSTP TSMULT
       1.00000000  1       1.00000000  PERLEN NSTP TSMULT
       1.00000000  1       1.00000000  PERLEN NSTP TSMULT
       1.00000000  1       1.00000000  PERLEN NSTP TSMULT
       1.00000000  1       1.00000000  PERLEN NSTP TSMULT
       1.00000000  1       1.00000000  PERLEN NSTP TSMULT
       1.00000000  1       1.00000000  PERLEN NSTP TSMULT
       1.00000000  1       1.00000000  PERLEN NSTP TSMULT
       1.00000000  1       1.00000000  PERLEN NSTP TSMULT
       1.00000000  1       1.00000000  PERLEN NSTP TSMULT
       1.00000000  1       1.00000000  PERLEN NSTP TSMULT
       1.00000000  1       1.00000000  PERLEN NSTP TSMULT
       1.00000000  1       1.00000000  PERLEN NSTP TSMULT
       1.00000000  1       1.00000000  PERLEN NSTP TSMULT
       1.00000000  1       1.00000000  PERLEN NSTP TSMULT
       1.00000000  1       1.00000000  PERLEN NSTP TSMULT
       1.00000000  1       1.00000000  PERLEN NSTP TSMULT
       1.00000000  1       1.00000000  PERLEN NSTP TSMULT
       1.00000000  1       1.00000000  PERLEN NSTP TSMULT
       1.00000000  1       1.00000000  PERLEN NSTP TSMULT
       1.00000000  1       1.00000000  PERLEN NSTP TSMULT
       1.00000000  1       1.00000000  PERLEN NSTP TSMULT
       1.00000000  1       1.00000000  PERLEN NSTP TSMULT
       1.00000000  1       1.00000000  PERLEN NSTP TSMULT
       1.00000000  1       1.00000000  PERLEN NSTP TSMULT
       1.00000000  1       1.00000000  PERLEN NSTP TSMULT
       1.00000000  1       1.00000000  PERLEN NSTP TSMULT
       1.00000000  1       1.00000000  PERLEN NSTP TSMULT
       1.00000000  1       1.00000000  PERLEN NSTP TSMULT
       1.00000000  1       1.00000000  PERLEN NSTP TSMULT
       1.00000000  1       1.00000000  PERLEN NSTP TSMULT
       1.00000000  1       1.00000000  PERLEN NSTP TSMULT
       1.00000000  1       1.00000000  PERLEN NSTP TSMULT
       1.00000000  1       1.00000000  PERLEN NSTP TSMULT
       1.00000000  1       1.00000000  PERLEN NSTP TSMULT
       1.00000000  1       1.00000000  PERLEN NSTP TSMULT
       1.00000000  1       1.00000000  PERLEN NSTP TSMULT
       1.00000000  1       1.00000000  PERLEN NSTP TSMULT
       1.00000000  1       1.00000000  PERLEN NSTP TSMULT
       1.00000000  1       1.00000000  PERLEN NSTP TSMULT
       1.00000000  1       1.00000000  PERLEN NSTP TSMULT
       1.00000000  1       1.00000000  PERLEN NSTP TSMULT
       1.00000000  1       1.00000000  PERLEN NSTP TSMULT
       1.00000000  1       1.00000000  PERLEN NSTP TSMULT
       1.00000000  1       1.00000000  PERLEN NSTP TSMULT
       1.00000000  1       1.00000000  PERLEN NSTP TSMULT
       1.00000000  1       1.00000000  PERLEN NSTP TSMULT
       1.00000000  1       1.00000000  PERLEN NSTP TSMULT
       1.00000000  1       1.00000000  PERLEN NSTP TSMULT
       1.00000000  1       1.00000000  PERLEN NSTP TSMULT
       1.00000000  1       1.00000000  PERLEN NSTP TSMULT
       1.00000000  1       1.00000000  PERLEN NSTP TSMULT
       1.00000000  1       1.00000000  PERLEN NSTP TSMULT
       1.00000000  1       1.00000000  PERLEN NSTP TSMULT
       1.00000000  1       1.00000000  PERLEN NSTP TSMULT
       1.00000000  1       1.00000000  PERLEN NSTP TSMULT
       1.00000000  1       1.00000000  PERLEN NSTP TSMULT
       1.00000000  1       1.00000000  PERLEN NSTP TSMULT
       1.00000000  1       1.00000000  PERLEN NSTP TSMULT
       1.00000000  1       1.00000000  PERLEN NSTP TSMULT
       1.00000000  1       1.00000000  PERLEN NSTP TSMULT
       1.00000000  1       1.00000000  PERLEN NSTP TSMULT
       1.00000000  1       1.00000000  PERLEN NSTP TSMULT
       1.00000000  1       1.00000000  PERLEN NSTP TSMULT
       1.00000000  1       1.00000000  PERLEN NSTP TSMULT
       1.00000000  1       1.00000000  PERLEN NSTP TSMULT
       1.00000000  1       1.00000000  PERLEN NSTP TSMULT
       1.00000000  1       1.00000000  PERLEN NSTP TSMULT
       1.00000000  1       1.00000000  PERLEN NSTP TSMULT
       1.00000000  1       1.00000000  PERLEN NSTP TSMULT
       1.00000000  1       1.00000000  PERLEN NSTP TSMULT
       1.00000000  1       1.00000000  PERLEN NSTP TSMULT
       1.00000000  1       1.00000000  PERLEN NSTP TSMULT
       1.00000000  1       1.00000000  PERLEN NSTP TSMULT
       1.00000000  1       1.00000000  PERLEN NSTP TSMULT
       1.00000000  1       1.00000000  PERLEN NSTP TSMULT
       1.00000000  1       1.00000000  PERLEN NSTP TSMULT
       1.00000000  1       1.00000000  PERLEN NSTP TSMULT
       1.00000000  1       1.00000000  PERLEN NSTP TSMULT
       1.00000000  1       1.00000000  PERLEN NSTP TSMULT
       1.00000000  1       1.00000000  PERLEN NSTP TSMULT