BEGIN OPTIONS
  SAVE_FLOWS
END OPTIONS

BEGIN DIMENSIONS
  MAXBOUND 1
END DIMENSIONS

BEGIN PERIOD 2
  1 72 15 1000.0
END PERIOD

