# File generated by Flopy version 3.3.4 on 10/01/2021 at 15:41:46.
BEGIN options
  XT3D_OFF
END options

BEGIN griddata
  ALH LAYERED
    CONSTANT 8.0
    CONSTANT 8.0
    CONSTANT 8.0
  ATH1 LAYERED
    CONSTANT 0.8
    CONSTANT 0.8
    CONSTANT 0.8
END griddata

