BEGIN options
  DIGITS  7
  PRINT_INPUT
END options

BEGIN continuous  FILEOUT  sft.csv
  tailwater  CONCENTRATION  120
END continuous  FILEOUT  sft.csv

