# File generated by Flopy version 3.3.4 on 07/20/2021 at 14:45:30.
BEGIN Options
  TIME_UNITS  days
END Options

BEGIN Dimensions
  NPER  731
END Dimensions

BEGIN PERIODDATA
       1.00000000  1       1.00000000  PERLEN NSTP TSMULT
       1.00000000  1       1.00000000  PERLEN NSTP TSMULT
       1.00000000  1       1.00000000  PERLEN NSTP TSMULT
       1.00000000  1       1.00000000  PERLEN NSTP TSMULT
       1.00000000  1       1.00000000  PERLEN NSTP TSMULT
       1.00000000  1       1.00000000  PERLEN NSTP TSMULT
       1.00000000  1       1.00000000  PERLEN NSTP TSMULT
       1.00000000  1       1.00000000  PERLEN NSTP TSMULT
       1.00000000  1       1.00000000  PERLEN NSTP TSMULT
       1.00000000  1       1.00000000  PERLEN NSTP TSMULT
       1.00000000  1       1.00000000  PERLEN NSTP TSMULT
       1.00000000  1       1.00000000  PERLEN NSTP TSMULT
       1.00000000  1       1.00000000  PERLEN NSTP TSMULT
       1.00000000  1       1.00000000  PERLEN NSTP TSMULT
       1.00000000  1       1.00000000  PERLEN NSTP TSMULT
       1.00000000  1       1.00000000  PERLEN NSTP TSMULT
       1.00000000  1       1.00000000  PERLEN NSTP TSMULT
       1.00000000  1       1.00000000  PERLEN NSTP TSMULT
       1.00000000  1       1.00000000  PERLEN NSTP TSMULT
       1.00000000  1       1.00000000  PERLEN NSTP TSMULT
       1.00000000  1       1.00000000  PERLEN NSTP TSMULT
       1.00000000  1       1.00000000  PERLEN NSTP TSMULT
       1.00000000  1       1.00000000  PERLEN NSTP TSMULT
       1.00000000  1       1.00000000  PERLEN NSTP TSMULT
       1.00000000  1       1.00000000  PERLEN NSTP TSMULT
       1.00000000  1       1.00000000  PERLEN NSTP TSMULT
       1.00000000  1       1.00000000  PERLEN NSTP TSMULT
       1.00000000  1       1.00000000  PERLEN NSTP TSMULT
       1.00000000  1       1.00000000  PERLEN NSTP TSMULT
       1.00000000  1       1.00000000  PERLEN NSTP TSMULT
       1.00000000  1       1.00000000  PERLEN NSTP TSMULT
       1.00000000  1       1.00000000  PERLEN NSTP TSMULT
       1.00000000  1       1.00000000  PERLEN NSTP TSMULT
       1.00000000  1       1.00000000  PERLEN NSTP TSMULT
       1.00000000  1       1.00000000  PERLEN NSTP TSMULT
       1.00000000  1       1.00000000  PERLEN NSTP TSMULT
       1.00000000  1       1.00000000  PERLEN NSTP TSMULT
       1.00000000  1       1.00000000  PERLEN NSTP TSMULT
       1.00000000  1       1.00000000  PERLEN NSTP TSMULT
       1.00000000  1       1.00000000  PERLEN NSTP TSMULT
       1.00000000  1       1.00000000  PERLEN NSTP TSMULT
       1.00000000  1       1.00000000  PERLEN NSTP TSMULT
       1.00000000  1       1.00000000  PERLEN NSTP TSMULT
       1.00000000  1       1.00000000  PERLEN NSTP TSMULT
       1.00000000  1       1.00000000  PERLEN NSTP TSMULT
       1.00000000  1       1.00000000  PERLEN NSTP TSMULT
       1.00000000  1       1.00000000  PERLEN NSTP TSMULT
       1.00000000  1       1.00000000  PERLEN NSTP TSMULT
       1.00000000  1       1.00000000  PERLEN NSTP TSMULT
       1.00000000  1       1.00000000  PERLEN NSTP TSMULT
       1.00000000  1       1.00000000  PERLEN NSTP TSMULT
       1.00000000  1       1.00000000  PERLEN NSTP TSMULT
       1.00000000  1       1.00000000  PERLEN NSTP TSMULT
       1.00000000  1       1.00000000  PERLEN NSTP TSMULT
       1.00000000  1       1.00000000  PERLEN NSTP TSMULT
       1.00000000  1       1.00000000  PERLEN NSTP TSMULT
       1.00000000  1       1.00000000  PERLEN NSTP TSMULT
       1.00000000  1       1.00000000  PERLEN NSTP TSMULT
       1.00000000  1       1.00000000  PERLEN NSTP TSMULT
       1.00000000  1       1.00000000  PERLEN NSTP TSMULT
       1.00000000  1       1.00000000  PERLEN NSTP TSMULT
       1.00000000  1       1.00000000  PERLEN NSTP TSMULT
       1.00000000  1       1.00000000  PERLEN NSTP TSMULT
       1.00000000  1       1.00000000  PERLEN NSTP TSMULT
       1.00000000  1       1.00000000  PERLEN NSTP TSMULT
       1.00000000  1       1.00000000  PERLEN NSTP TSMULT
       1.00000000  1       1.00000000  PERLEN NSTP TSMULT
       1.00000000  1       1.00000000  PERLEN NSTP TSMULT
       1.00000000  1       1.00000000  PERLEN NSTP TSMULT
       1.00000000  1       1.00000000  PERLEN NSTP TSMULT
       1.00000000  1       1.00000000  PERLEN NSTP TSMULT
       1.00000000  1       1.00000000  PERLEN NSTP TSMULT
       1.00000000  1       1.00000000  PERLEN NSTP TSMULT
       1.00000000  1       1.00000000  PERLEN NSTP TSMULT
       1.00000000  1       1.00000000  PERLEN NSTP TSMULT
       1.00000000  1       1.00000000  PERLEN NSTP TSMULT
       1.00000000  1       1.00000000  PERLEN NSTP TSMULT
       1.00000000  1       1.00000000  PERLEN NSTP TSMULT
       1.00000000  1       1.00000000  PERLEN NSTP TSMULT
       1.00000000  1       1.00000000  PERLEN NSTP TSMULT
       1.00000000  1       1.00000000  PERLEN NSTP TSMULT
       1.00000000  1       1.00000000  PERLEN NSTP TSMULT
       1.00000000  1       1.00000000  PERLEN NSTP TSMULT
       1.00000000  1       1.00000000  PERLEN NSTP TSMULT
       1.00000000  1       1.00000000  PERLEN NSTP TSMULT
       1.00000000  1       1.00000000  PERLEN NSTP TSMULT
       1.00000000  1       1.00000000  PERLEN NSTP TSMULT
       1.00000000  1       1.00000000  PERLEN NSTP TSMULT
       1.00000000  1       1.00000000  PERLEN NSTP TSMULT
       1.00000000  1       1.00000000  PERLEN NSTP TSMULT
       1.00000000  1       1.00000000  PERLEN NSTP TSMULT
       1.00000000  1       1.00000000  PERLEN NSTP TSMULT
       1.00000000  1       1.00000000  PERLEN NSTP TSMULT
       1.00000000  1       1.00000000  PERLEN NSTP TSMULT
       1.00000000  1       1.00000000  PERLEN NSTP TSMULT
       1.00000000  1       1.00000000  PERLEN NSTP TSMULT
       1.00000000  1       1.00000000  PERLEN NSTP TSMULT
       1.00000000  1       1.00000000  PERLEN NSTP TSMULT
       1.00000000  1       1.00000000  PERLEN NSTP TSMULT
       1.00000000  1       1.00000000  PERLEN NSTP TSMULT
       1.00000000  1       1.00000000  PERLEN NSTP TSMULT
       1.00000000  1       1.00000000  PERLEN NSTP TSMULT
       1.00000000  1       1.00000000  PERLEN NSTP TSMULT
       1.00000000  1       1.00000000  PERLEN NSTP TSMULT
       1.00000000  1       1.00000000  PERLEN NSTP TSMULT
       1.00000000  1       1.00000000  PERLEN NSTP TSMULT
       1.00000000  1       1.00000000  PERLEN NSTP TSMULT
       1.00000000  1       1.00000000  PERLEN NSTP TSMULT
       1.00000000  1       1.00000000  PERLEN NSTP TSMULT
       1.00000000  1       1.00000000  PERLEN NSTP TSMULT
       1.00000000  1       1.00000000  PERLEN NSTP TSMULT
       1.00000000  1       1.00000000  PERLEN NSTP TSMULT
       1.00000000  1       1.00000000  PERLEN NSTP TSMULT
       1.00000000  1       1.00000000  PERLEN NSTP TSMULT
       1.00000000  1       1.00000000  PERLEN NSTP TSMULT
       1.00000000  1       1.00000000  PERLEN NSTP TSMULT
       1.00000000  1       1.00000000  PERLEN NSTP TSMULT
       1.00000000  1       1.00000000  PERLEN NSTP TSMULT
       1.00000000  1       1.00000000  PERLEN NSTP TSMULT
       1.00000000  1       1.00000000  PERLEN NSTP TSMULT
       1.00000000  1       1.00000000  PERLEN NSTP TSMULT
       1.00000000  1       1.00000000  PERLEN NSTP TSMULT
       1.00000000  1       1.00000000  PERLEN NSTP TSMULT
       1.00000000  1       1.00000000  PERLEN NSTP TSMULT
       1.00000000  1       1.00000000  PERLEN NSTP TSMULT
       1.00000000  1       1.00000000  PERLEN NSTP TSMULT
       1.00000000  1       1.00000000  PERLEN NSTP TSMULT
       1.00000000  1       1.00000000  PERLEN NSTP TSMULT
       1.00000000  1       1.00000000  PERLEN NSTP TSMULT
       1.00000000  1       1.00000000  PERLEN NSTP TSMULT
       1.00000000  1       1.00000000  PERLEN NSTP TSMULT
       1.00000000  1       1.00000000  PERLEN NSTP TSMULT
       1.00000000  1       1.00000000  PERLEN NSTP TSMULT
       1.00000000  1       1.00000000  PERLEN NSTP TSMULT
       1.00000000  1       1.00000000  PERLEN NSTP TSMULT
       1.00000000  1       1.00000000  PERLEN NSTP TSMULT
       1.00000000  1       1.00000000  PERLEN NSTP TSMULT
       1.00000000  1       1.00000000  PERLEN NSTP TSMULT
       1.00000000  1       1.00000000  PERLEN NSTP TSMULT
       1.00000000  1       1.00000000  PERLEN NSTP TSMULT
       1.00000000  1       1.00000000  PERLEN NSTP TSMULT
       1.00000000  1       1.00000000  PERLEN NSTP TSMULT
       1.00000000  1       1.00000000  PERLEN NSTP TSMULT
       1.00000000  1       1.00000000  PERLEN NSTP TSMULT
       1.00000000  1       1.00000000  PERLEN NSTP TSMULT
       1.00000000  1       1.00000000  PERLEN NSTP TSMULT
       1.00000000  1       1.00000000  PERLEN NSTP TSMULT
       1.00000000  1       1.00000000  PERLEN NSTP TSMULT
       1.00000000  1       1.00000000  PERLEN NSTP TSMULT
       1.00000000  1       1.00000000  PERLEN NSTP TSMULT
       1.00000000  1       1.00000000  PERLEN NSTP TSMULT
       1.00000000  1       1.00000000  PERLEN NSTP TSMULT
       1.00000000  1       1.00000000  PERLEN NSTP TSMULT
       1.00000000  1       1.00000000  PERLEN NSTP TSMULT
       1.00000000  1       1.00000000  PERLEN NSTP TSMULT
       1.00000000  1       1.00000000  PERLEN NSTP TSMULT
       1.00000000  1       1.00000000  PERLEN NSTP TSMULT
       1.00000000  1       1.00000000  PERLEN NSTP TSMULT
       1.00000000  1       1.00000000  PERLEN NSTP TSMULT
       1.00000000  1       1.00000000  PERLEN NSTP TSMULT
       1.00000000  1       1.00000000  PERLEN NSTP TSMULT
       1.00000000  1       1.00000000  PERLEN NSTP TSMULT
       1.00000000  1       1.00000000  PERLEN NSTP TSMULT
       1.00000000  1       1.00000000  PERLEN NSTP TSMULT
       1.00000000  1       1.00000000  PERLEN NSTP TSMULT
       1.00000000  1       1.00000000  PERLEN NSTP TSMULT
       1.00000000  1       1.00000000  PERLEN NSTP TSMULT
       1.00000000  1       1.00000000  PERLEN NSTP TSMULT
       1.00000000  1       1.00000000  PERLEN NSTP TSMULT
       1.00000000  1       1.00000000  PERLEN NSTP TSMULT
       1.00000000  1       1.00000000  PERLEN NSTP TSMULT
       1.00000000  1       1.00000000  PERLEN NSTP TSMULT
       1.00000000  1       1.00000000  PERLEN NSTP TSMULT
       1.00000000  1       1.00000000  PERLEN NSTP TSMULT
       1.00000000  1       1.00000000  PERLEN NSTP TSMULT
       1.00000000  1       1.00000000  PERLEN NSTP TSMULT
       1.00000000  1       1.00000000  PERLEN NSTP TSMULT
       1.00000000  1       1.00000000  PERLEN NSTP TSMULT
       1.00000000  1       1.00000000  PERLEN NSTP TSMULT
       1.00000000  1       1.00000000  PERLEN NSTP TSMULT
       1.00000000  1       1.00000000  PERLEN NSTP TSMULT
       1.00000000  1       1.00000000  PERLEN NSTP TSMULT
       1.00000000  1       1.00000000  PERLEN NSTP TSMULT
       1.00000000  1       1.00000000  PERLEN NSTP TSMULT
       1.00000000  1       1.00000000  PERLEN NSTP TSMULT
       1.00000000  1       1.00000000  PERLEN NSTP TSMULT
       1.00000000  1       1.00000000  PERLEN NSTP TSMULT
       1.00000000  1       1.00000000  PERLEN NSTP TSMULT
       1.00000000  1       1.00000000  PERLEN NSTP TSMULT
       1.00000000  1       1.00000000  PERLEN NSTP TSMULT
       1.00000000  1       1.00000000  PERLEN NSTP TSMULT
       1.00000000  1       1.00000000  PERLEN NSTP TSMULT
       1.00000000  1       1.00000000  PERLEN NSTP TSMULT
       1.00000000  1       1.00000000  PERLEN NSTP TSMULT
       1.00000000  1       1.00000000  PERLEN NSTP TSMULT
       1.00000000  1       1.00000000  PERLEN NSTP TSMULT
       1.00000000  1       1.00000000  PERLEN NSTP TSMULT
       1.00000000  1       1.00000000  PERLEN NSTP TSMULT
       1.00000000  1       1.00000000  PERLEN NSTP TSMULT
       1.00000000  1       1.00000000  PERLEN NSTP TSMULT
       1.00000000  1       1.00000000  PERLEN NSTP TSMULT
       1.00000000  1       1.00000000  PERLEN NSTP TSMULT
       1.00000000  1       1.00000000  PERLEN NSTP TSMULT
       1.00000000  1       1.00000000  PERLEN NSTP TSMULT
       1.00000000  1       1.00000000  PERLEN NSTP TSMULT
       1.00000000  1       1.00000000  PERLEN NSTP TSMULT
       1.00000000  1       1.00000000  PERLEN NSTP TSMULT
       1.00000000  1       1.00000000  PERLEN NSTP TSMULT
       1.00000000  1       1.00000000  PERLEN NSTP TSMULT
       1.00000000  1       1.00000000  PERLEN NSTP TSMULT
       1.00000000  1       1.00000000  PERLEN NSTP TSMULT
       1.00000000  1       1.00000000  PERLEN NSTP TSMULT
       1.00000000  1       1.00000000  PERLEN NSTP TSMULT
       1.00000000  1       1.00000000  PERLEN NSTP TSMULT
       1.00000000  1       1.00000000  PERLEN NSTP TSMULT
       1.00000000  1       1.00000000  PERLEN NSTP TSMULT
       1.00000000  1       1.00000000  PERLEN NSTP TSMULT
       1.00000000  1       1.00000000  PERLEN NSTP TSMULT
       1.00000000  1       1.00000000  PERLEN NSTP TSMULT
       1.00000000  1       1.00000000  PERLEN NSTP TSMULT
       1.00000000  1       1.00000000  PERLEN NSTP TSMULT
       1.00000000  1       1.00000000  PERLEN NSTP TSMULT
       1.00000000  1       1.00000000  PERLEN NSTP TSMULT
       1.00000000  1       1.00000000  PERLEN NSTP TSMULT
       1.00000000  1       1.00000000  PERLEN NSTP TSMULT
       1.00000000  1       1.00000000  PERLEN NSTP TSMULT
       1.00000000  1       1.00000000  PERLEN NSTP TSMULT
       1.00000000  1       1.00000000  PERLEN NSTP TSMULT
       1.00000000  1       1.00000000  PERLEN NSTP TSMULT
       1.00000000  1       1.00000000  PERLEN NSTP TSMULT
       1.00000000  1       1.00000000  PERLEN NSTP TSMULT
       1.00000000  1       1.00000000  PERLEN NSTP TSMULT
       1.00000000  1       1.00000000  PERLEN NSTP TSMULT
       1.00000000  1       1.00000000  PERLEN NSTP TSMULT
       1.00000000  1       1.00000000  PERLEN NSTP TSMULT
       1.00000000  1       1.00000000  PERLEN NSTP TSMULT
       1.00000000  1       1.00000000  PERLEN NSTP TSMULT
       1.00000000  1       1.00000000  PERLEN NSTP TSMULT
       1.00000000  1       1.00000000  PERLEN NSTP TSMULT
       1.00000000  1       1.00000000  PERLEN NSTP TSMULT
       1.00000000  1       1.00000000  PERLEN NSTP TSMULT
       1.00000000  1       1.00000000  PERLEN NSTP TSMULT
       1.00000000  1       1.00000000  PERLEN NSTP TSMULT
       1.00000000  1       1.00000000  PERLEN NSTP TSMULT
       1.00000000  1       1.00000000  PERLEN NSTP TSMULT
       1.00000000  1       1.00000000  PERLEN NSTP TSMULT
       1.00000000  1       1.00000000  PERLEN NSTP TSMULT
       1.00000000  1       1.00000000  PERLEN NSTP TSMULT
       1.00000000  1       1.00000000  PERLEN NSTP TSMULT
       1.00000000  1       1.00000000  PERLEN NSTP TSMULT
       1.00000000  1       1.00000000  PERLEN NSTP TSMULT
       1.00000000  1       1.00000000  PERLEN NSTP TSMULT
       1.00000000  1       1.00000000  PERLEN NSTP TSMULT
       1.00000000  1       1.00000000  PERLEN NSTP TSMULT
       1.00000000  1       1.00000000  PERLEN NSTP TSMULT
       1.00000000  1       1.00000000  PERLEN NSTP TSMULT
       1.00000000  1       1.00000000  PERLEN NSTP TSMULT
       1.00000000  1       1.00000000  PERLEN NSTP TSMULT
       1.00000000  1       1.00000000  PERLEN NSTP TSMULT
       1.00000000  1       1.00000000  PERLEN NSTP TSMULT
       1.00000000  1       1.00000000  PERLEN NSTP TSMULT
       1.00000000  1       1.00000000  PERLEN NSTP TSMULT
       1.00000000  1       1.00000000  PERLEN NSTP TSMULT
       1.00000000  1       1.00000000  PERLEN NSTP TSMULT
       1.00000000  1       1.00000000  PERLEN NSTP TSMULT
       1.00000000  1       1.00000000  PERLEN NSTP TSMULT
       1.00000000  1       1.00000000  PERLEN NSTP TSMULT
       1.00000000  1       1.00000000  PERLEN NSTP TSMULT
       1.00000000  1       1.00000000  PERLEN NSTP TSMULT
       1.00000000  1       1.00000000  PERLEN NSTP TSMULT
       1.00000000  1       1.00000000  PERLEN NSTP TSMULT
       1.00000000  1       1.00000000  PERLEN NSTP TSMULT
       1.00000000  1       1.00000000  PERLEN NSTP TSMULT
       1.00000000  1       1.00000000  PERLEN NSTP TSMULT
       1.00000000  1       1.00000000  PERLEN NSTP TSMULT
       1.00000000  1       1.00000000  PERLEN NSTP TSMULT
       1.00000000  1       1.00000000  PERLEN NSTP TSMULT
       1.00000000  1       1.00000000  PERLEN NSTP TSMULT
       1.00000000  1       1.00000000  PERLEN NSTP TSMULT
       1.00000000  1       1.00000000  PERLEN NSTP TSMULT
       1.00000000  1       1.00000000  PERLEN NSTP TSMULT
       1.00000000  1       1.00000000  PERLEN NSTP TSMULT
       1.00000000  1       1.00000000  PERLEN NSTP TSMULT
       1.00000000  1       1.00000000  PERLEN NSTP TSMULT
       1.00000000  1       1.00000000  PERLEN NSTP TSMULT
       1.00000000  1       1.00000000  PERLEN NSTP TSMULT
       1.00000000  1       1.00000000  PERLEN NSTP TSMULT
       1.00000000  1       1.00000000  PERLEN NSTP TSMULT
       1.00000000  1       1.00000000  PERLEN NSTP TSMULT
       1.00000000  1       1.00000000  PERLEN NSTP TSMULT
       1.00000000  1       1.00000000  PERLEN NSTP TSMULT
       1.00000000  1       1.00000000  PERLEN NSTP TSMULT
       1.00000000  1       1.00000000  PERLEN NSTP TSMULT
       1.00000000  1       1.00000000  PERLEN NSTP TSMULT
       1.00000000  1       1.00000000  PERLEN NSTP TSMULT
       1.00000000  1       1.00000000  PERLEN NSTP TSMULT
       1.00000000  1       1.00000000  PERLEN NSTP TSMULT
       1.00000000  1       1.00000000  PERLEN NSTP TSMULT
       1.00000000  1       1.00000000  PERLEN NSTP TSMULT
       1.00000000  1       1.00000000  PERLEN NSTP TSMULT
       1.00000000  1       1.00000000  PERLEN NSTP TSMULT
       1.00000000  1       1.00000000  PERLEN NSTP TSMULT
       1.00000000  1       1.00000000  PERLEN NSTP TSMULT
       1.00000000  1       1.00000000  PERLEN NSTP TSMULT
       1.00000000  1       1.00000000  PERLEN NSTP TSMULT
       1.00000000  1       1.00000000  PERLEN NSTP TSMULT
       1.00000000  1       1.00000000  PERLEN NSTP TSMULT
       1.00000000  1       1.00000000  PERLEN NSTP TSMULT
       1.00000000  1       1.00000000  PERLEN NSTP TSMULT
       1.00000000  1       1.00000000  PERLEN NSTP TSMULT
       1.00000000  1       1.00000000  PERLEN NSTP TSMULT
       1.00000000  1       1.00000000  PERLEN NSTP TSMULT
       1.00000000  1       1.00000000  PERLEN NSTP TSMULT
       1.00000000  1       1.00000000  PERLEN NSTP TSMULT
       1.00000000  1       1.00000000  PERLEN NSTP TSMULT
       1.00000000  1       1.00000000  PERLEN NSTP TSMULT
       1.00000000  1       1.00000000  PERLEN NSTP TSMULT
       1.00000000  1       1.00000000  PERLEN NSTP TSMULT
       1.00000000  1       1.00000000  PERLEN NSTP TSMULT
       1.00000000  1       1.00000000  PERLEN NSTP TSMULT
       1.00000000  1       1.00000000  PERLEN NSTP TSMULT
       1.00000000  1       1.00000000  PERLEN NSTP TSMULT
       1.00000000  1       1.00000000  PERLEN NSTP TSMULT
       1.00000000  1       1.00000000  PERLEN NSTP TSMULT
       1.00000000  1       1.00000000  PERLEN NSTP TSMULT
       1.00000000  1       1.00000000  PERLEN NSTP TSMULT
       1.00000000  1       1.00000000  PERLEN NSTP TSMULT
       1.00000000  1       1.00000000  PERLEN NSTP TSMULT
       1.00000000  1       1.00000000  PERLEN NSTP TSMULT
       1.00000000  1       1.00000000  PERLEN NSTP TSMULT
       1.00000000  1       1.00000000  PERLEN NSTP TSMULT
       1.00000000  1       1.00000000  PERLEN NSTP TSMULT
       1.00000000  1       1.00000000  PERLEN NSTP TSMULT
       1.00000000  1       1.00000000  PERLEN NSTP TSMULT
       1.00000000  1       1.00000000  PERLEN NSTP TSMULT
       1.00000000  1       1.00000000  PERLEN NSTP TSMULT
       1.00000000  1       1.00000000  PERLEN NSTP TSMULT
       1.00000000  1       1.00000000  PERLEN NSTP TSMULT
       1.00000000  1       1.00000000  PERLEN NSTP TSMULT
       1.00000000  1       1.00000000  PERLEN NSTP TSMULT
       1.00000000  1       1.00000000  PERLEN NSTP TSMULT
       1.00000000  1       1.00000000  PERLEN NSTP TSMULT
       1.00000000  1       1.00000000  PERLEN NSTP TSMULT
       1.00000000  1       1.00000000  PERLEN NSTP TSMULT
       1.00000000  1       1.00000000  PERLEN NSTP TSMULT
       1.00000000  1       1.00000000  PERLEN NSTP TSMULT
       1.00000000  1       1.00000000  PERLEN NSTP TSMULT
       1.00000000  1       1.00000000  PERLEN NSTP TSMULT
       1.00000000  1       1.00000000  PERLEN NSTP TSMULT
       1.00000000  1       1.00000000  PERLEN NSTP TSMULT
       1.00000000  1       1.00000000  PERLEN NSTP TSMULT
       1.00000000  1       1.00000000  PERLEN NSTP TSMULT
       1.00000000  1       1.00000000  PERLEN NSTP TSMULT
       1.00000000  1       1.00000000  PERLEN NSTP TSMULT
       1.00000000  1       1.00000000  PERLEN NSTP TSMULT
       1.00000000  1       1.00000000  PERLEN NSTP TSMULT
       1.00000000  1       1.00000000  PERLEN NSTP TSMULT
       1.00000000  1       1.00000000  PERLEN NSTP TSMULT
       1.00000000  1       1.00000000  PERLEN NSTP TSMULT
       1.00000000  1       1.00000000  PERLEN NSTP TSMULT
       1.00000000  1       1.00000000  PERLEN NSTP TSMULT
       1.00000000  1       1.00000000  PERLEN NSTP TSMULT
       1.00000000  1       1.00000000  PERLEN NSTP TSMULT
       1.00000000  1       1.00000000  PERLEN NSTP TSMULT
       1.00000000  1       1.00000000  PERLEN NSTP TSMULT
       1.00000000  1       1.00000000  PERLEN NSTP TSMULT
       1.00000000  1       1.00000000  PERLEN NSTP TSMULT
       1.00000000  1       1.00000000  PERLEN NSTP TSMULT
       1.00000000  1       1.00000000  PERLEN NSTP TSMULT
       1.00000000  1       1.00000000  PERLEN NSTP TSMULT
       1.00000000  1       1.00000000  PERLEN NSTP TSMULT
       1.00000000  1       1.00000000  PERLEN NSTP TSMULT
       1.00000000  1       1.00000000  PERLEN NSTP TSMULT
       1.00000000  1       1.00000000  PERLEN NSTP TSMULT
       1.00000000  1       1.00000000  PERLEN NSTP TSMULT
       1.00000000  1       1.00000000  PERLEN NSTP TSMULT
       1.00000000  1       1.00000000  PERLEN NSTP TSMULT
       1.00000000  1       1.00000000  PERLEN NSTP TSMULT
       1.00000000  1       1.00000000  PERLEN NSTP TSMULT
       1.00000000  1       1.00000000  PERLEN NSTP TSMULT
       1.00000000  1       1.00000000  PERLEN NSTP TSMULT
       1.00000000  1       1.00000000  PERLEN NSTP TSMULT
       1.00000000  1       1.00000000  PERLEN NSTP TSMULT
       1.00000000  1       1.00000000  PERLEN NSTP TSMULT
       1.00000000  1       1.00000000  PERLEN NSTP TSMULT
       1.00000000  1       1.00000000  PERLEN NSTP TSMULT
       1.00000000  1       1.00000000  PERLEN NSTP TSMULT
       1.00000000  1       1.00000000  PERLEN NSTP TSMULT
       1.00000000  1       1.00000000  PERLEN NSTP TSMULT
       1.00000000  1       1.00000000  PERLEN NSTP TSMULT
       1.00000000  1       1.00000000  PERLEN NSTP TSMULT
       1.00000000  1       1.00000000  PERLEN NSTP TSMULT
       1.00000000  1       1.00000000  PERLEN NSTP TSMULT
       1.00000000  1       1.00000000  PERLEN NSTP TSMULT
       1.00000000  1       1.00000000  PERLEN NSTP TSMULT
       1.00000000  1       1.00000000  PERLEN NSTP TSMULT
       1.00000000  1       1.00000000  PERLEN NSTP TSMULT
       1.00000000  1       1.00000000  PERLEN NSTP TSMULT
       1.00000000  1       1.00000000  PERLEN NSTP TSMULT
       1.00000000  1       1.00000000  PERLEN NSTP TSMULT
       1.00000000  1       1.00000000  PERLEN NSTP TSMULT
       1.00000000  1       1.00000000  PERLEN NSTP TSMULT
       1.00000000  1       1.00000000  PERLEN NSTP TSMULT
       1.00000000  1       1.00000000  PERLEN NSTP TSMULT
       1.00000000  1       1.00000000  PERLEN NSTP TSMULT
       1.00000000  1       1.00000000  PERLEN NSTP TSMULT
       1.00000000  1       1.00000000  PERLEN NSTP TSMULT
       1.00000000  1       1.00000000  PERLEN NSTP TSMULT
       1.00000000  1       1.00000000  PERLEN NSTP TSMULT
       1.00000000  1       1.00000000  PERLEN NSTP TSMULT
       1.00000000  1       1.00000000  PERLEN NSTP TSMULT
       1.00000000  1       1.00000000  PERLEN NSTP TSMULT
       1.00000000  1       1.00000000  PERLEN NSTP TSMULT
       1.00000000  1       1.00000000  PERLEN NSTP TSMULT
       1.00000000  1       1.00000000  PERLEN NSTP TSMULT
       1.00000000  1       1.00000000  PERLEN NSTP TSMULT
       1.00000000  1       1.00000000  PERLEN NSTP TSMULT
       1.00000000  1       1.00000000  PERLEN NSTP TSMULT
       1.00000000  1       1.00000000  PERLEN NSTP TSMULT
       1.00000000  1       1.00000000  PERLEN NSTP TSMULT
       1.00000000  1       1.00000000  PERLEN NSTP TSMULT
       1.00000000  1       1.00000000  PERLEN NSTP TSMULT
       1.00000000  1       1.00000000  PERLEN NSTP TSMULT
       1.00000000  1       1.00000000  PERLEN NSTP TSMULT
       1.00000000  1       1.00000000  PERLEN NSTP TSMULT
       1.00000000  1       1.00000000  PERLEN NSTP TSMULT
       1.00000000  1       1.00000000  PERLEN NSTP TSMULT
       1.00000000  1       1.00000000  PERLEN NSTP TSMULT
       1.00000000  1       1.00000000  PERLEN NSTP TSMULT
       1.00000000  1       1.00000000  PERLEN NSTP TSMULT
       1.00000000  1       1.00000000  PERLEN NSTP TSMULT
       1.00000000  1       1.00000000  PERLEN NSTP TSMULT
       1.00000000  1       1.00000000  PERLEN NSTP TSMULT
       1.00000000  1       1.00000000  PERLEN NSTP TSMULT
       1.00000000  1       1.00000000  PERLEN NSTP TSMULT
       1.00000000  1       1.00000000  PERLEN NSTP TSMULT
       1.00000000  1       1.00000000  PERLEN NSTP TSMULT
       1.00000000  1       1.00000000  PERLEN NSTP TSMULT
       1.00000000  1       1.00000000  PERLEN NSTP TSMULT
       1.00000000  1       1.00000000  PERLEN NSTP TSMULT
       1.00000000  1       1.00000000  PERLEN NSTP TSMULT
       1.00000000  1       1.00000000  PERLEN NSTP TSMULT
       1.00000000  1       1.00000000  PERLEN NSTP TSMULT
       1.00000000  1       1.00000000  PERLEN NSTP TSMULT
       1.00000000  1       1.00000000  PERLEN NSTP TSMULT
       1.00000000  1       1.00000000  PERLEN NSTP TSMULT
       1.00000000  1       1.00000000  PERLEN NSTP TSMULT
       1.00000000  1       1.00000000  PERLEN NSTP TSMULT
       1.00000000  1       1.00000000  PERLEN NSTP TSMULT
       1.00000000  1       1.00000000  PERLEN NSTP TSMULT
       1.00000000  1       1.00000000  PERLEN NSTP TSMULT
       1.00000000  1       1.00000000  PERLEN NSTP TSMULT
       1.00000000  1       1.00000000  PERLEN NSTP TSMULT
       1.00000000  1       1.00000000  PERLEN NSTP TSMULT
       1.00000000  1       1.00000000  PERLEN NSTP TSMULT
       1.00000000  1       1.00000000  PERLEN NSTP TSMULT
       1.00000000  1       1.00000000  PERLEN NSTP TSMULT
       1.00000000  1       1.00000000  PERLEN NSTP TSMULT
       1.00000000  1       1.00000000  PERLEN NSTP TSMULT
       1.00000000  1       1.00000000  PERLEN NSTP TSMULT
       1.00000000  1       1.00000000  PERLEN NSTP TSMULT
       1.00000000  1       1.00000000  PERLEN NSTP TSMULT
       1.00000000  1       1.00000000  PERLEN NSTP TSMULT
       1.00000000  1       1.00000000  PERLEN NSTP TSMULT
       1.00000000  1       1.00000000  PERLEN NSTP TSMULT
       1.00000000  1       1.00000000  PERLEN NSTP TSMULT
       1.00000000  1       1.00000000  PERLEN NSTP TSMULT
       1.00000000  1       1.00000000  PERLEN NSTP TSMULT
       1.00000000  1       1.00000000  PERLEN NSTP TSMULT
       1.00000000  1       1.00000000  PERLEN NSTP TSMULT
       1.00000000  1       1.00000000  PERLEN NSTP TSMULT
       1.00000000  1       1.00000000  PERLEN NSTP TSMULT
       1.00000000  1       1.00000000  PERLEN NSTP TSMULT
       1.00000000  1       1.00000000  PERLEN NSTP TSMULT
       1.00000000  1       1.00000000  PERLEN NSTP TSMULT
       1.00000000  1       1.00000000  PERLEN NSTP TSMULT
       1.00000000  1       1.00000000  PERLEN NSTP TSMULT
       1.00000000  1       1.00000000  PERLEN NSTP TSMULT
       1.00000000  1       1.00000000  PERLEN NSTP TSMULT
       1.00000000  1       1.00000000  PERLEN NSTP TSMULT
       1.00000000  1       1.00000000  PERLEN NSTP TSMULT
       1.00000000  1       1.00000000  PERLEN NSTP TSMULT
       1.00000000  1       1.00000000  PERLEN NSTP TSMULT
       1.00000000  1       1.00000000  PERLEN NSTP TSMULT
       1.00000000  1       1.00000000  PERLEN NSTP TSMULT
       1.00000000  1       1.00000000  PERLEN NSTP TSMULT
       1.00000000  1       1.00000000  PERLEN NSTP TSMULT
       1.00000000  1       1.00000000  PERLEN NSTP TSMULT
       1.00000000  1       1.00000000  PERLEN NSTP TSMULT
       1.00000000  1       1.00000000  PERLEN NSTP TSMULT
       1.00000000  1       1.00000000  PERLEN NSTP TSMULT
       1.00000000  1       1.00000000  PERLEN NSTP TSMULT
       1.00000000  1       1.00000000  PERLEN NSTP TSMULT
       1.00000000  1       1.00000000  PERLEN NSTP TSMULT
       1.00000000  1       1.00000000  PERLEN NSTP TSMULT
       1.00000000  1       1.00000000  PERLEN NSTP TSMULT
       1.00000000  1       1.00000000  PERLEN NSTP TSMULT
       1.00000000  1       1.00000000  PERLEN NSTP TSMULT
       1.00000000  1       1.00000000  PERLEN NSTP TSMULT
       1.00000000  1       1.00000000  PERLEN NSTP TSMULT
       1.00000000  1       1.00000000  PERLEN NSTP TSMULT
       1.00000000  1       1.00000000  PERLEN NSTP TSMULT
       1.00000000  1       1.00000000  PERLEN NSTP TSMULT
       1.00000000  1       1.00000000  PERLEN NSTP TSMULT
       1.00000000  1       1.00000000  PERLEN NSTP TSMULT
       1.00000000  1       1.00000000  PERLEN NSTP TSMULT
       1.00000000  1       1.00000000  PERLEN NSTP TSMULT
       1.00000000  1       1.00000000  PERLEN NSTP TSMULT
       1.00000000  1       1.00000000  PERLEN NSTP TSMULT
       1.00000000  1       1.00000000  PERLEN NSTP TSMULT
       1.00000000  1       1.00000000  PERLEN NSTP TSMULT
       1.00000000  1       1.00000000  PERLEN NSTP TSMULT
       1.00000000  1       1.00000000  PERLEN NSTP TSMULT
       1.00000000  1       1.00000000  PERLEN NSTP TSMULT