# File generated by Flopy version 3.3.4 on 07/20/2021 at 14:45:33.
BEGIN options
END options

BEGIN continuous  FILEOUT  sfr.csv
  headwater  SFR  headwater
  tailwater  SFR  tailwater
  gage_1  inflow  120.0
END continuous  FILEOUT  sfr.csv

