# MPSIM package for MODPATH 7, generated by Flopy.
freyberg6_mp_forward.mpnam
freyberg6_mp_forward.mplst
4 1 1 1 0 0
freyberg6_mp_forward.mpend
freyberg6_mp_forward.mppth
freyberg6_mp_forward.timeseries
0
1
0
2
1
100 107.31
1
1
1
PG1
1
0.0
INTERNAL
3
1 1
2 1 0
 1 1 1
 17049