MODPATH_TIMESERIES_FILE         7         2
    1   0.0000000000E+00  0.0000000000E+00  0.0000000000E+00  0.0000000000E+00
END HEADER
       0       1  0.000000000E+000         1    1         1     17049  5.000000000E-001  5.000000000E-001  5.000000000E-001  7.083333900E+002  6.291667170E+003  2.028650000E+001         3
       1       1  1.073100000E+002         1    1         1     17049  5.006338611E-001  4.842904091E-001  4.990675211E-001  7.083862118E+002  6.290358037E+003  2.026838473E+001         3
       2       1  2.146200000E+002         1    1         1     17049  5.012675956E-001  4.685483206E-001  4.981367813E-001  7.084390230E+002  6.289046197E+003  2.025030325E+001         3
       3       1  3.219300000E+002         1    1         1     17049  5.019012033E-001  4.527736672E-001  4.972077772E-001  7.084918236E+002  6.287731642E+003  2.023225549E+001         3
       4       1  4.292400000E+002         1    1         1     17049  5.025346845E-001  4.369663817E-001  4.962805057E-001  7.085446137E+002  6.286414368E+003  2.021424138E+001         3
       5       1  5.365500000E+002         1    1         1     17049  5.031680391E-001  4.211263965E-001  4.953549635E-001  7.085973933E+002  6.285094369E+003  2.019626088E+001         3
       6       1  6.438600000E+002         1    1         1     17049  5.038012671E-001  4.052536439E-001  4.944311474E-001  7.086501623E+002  6.283771640E+003  2.017831390E+001         3
       7       1  7.511700000E+002         1    1         1     17049  5.044343685E-001  3.893480562E-001  4.935090542E-001  7.087029207E+002  6.282446174E+003  2.016040040E+001         3
       8       1  8.584800000E+002         1    1         1     17049  5.050673435E-001  3.734095655E-001  4.925886807E-001  7.087556687E+002  6.281117966E+003  2.014252030E+001         3
       9       1  9.657900000E+002         1    1         1     17049  5.057001919E-001  3.574381036E-001  4.916700236E-001  7.088084060E+002  6.279787011E+003  2.012467355E+001         3
      10       1  1.073100000E+003         1    1         1     17049  5.063329138E-001  3.414336024E-001  4.907530798E-001  7.088611329E+002  6.278453302E+003  2.010686008E+001         3
      11       1  1.180410000E+003         1    1         1     17049  5.069655093E-001  3.253959935E-001  4.898378460E-001  7.089138492E+002  6.277116835E+003  2.008907983E+001         3
      12       1  1.287720000E+003         1    1         1     17049  5.075979784E-001  3.093252085E-001  4.889243191E-001  7.089665549E+002  6.275777603E+003  2.007133275E+001         3
      13       1  1.395030000E+003         1    1         1     17049  5.082303211E-001  2.932211787E-001  4.880124959E-001  7.090192501E+002  6.274435600E+003  2.005361876E+001         3
      14       1  1.502340000E+003         1    1         1     17049  5.088625374E-001  2.770838354E-001  4.871023732E-001  7.090719348E+002  6.273090821E+003  2.003593780E+001         3
      15       1  1.609650000E+003         1    1         1     17049  5.094946274E-001  2.609131096E-001  4.861939478E-001  7.091246090E+002  6.271743261E+003  2.001828982E+001         3
      16       1  1.716960000E+003         1    1         1     17049  5.101265911E-001  2.447089322E-001  4.852872167E-001  7.091772727E+002  6.270392913E+003  2.000067476E+001         3
      17       1  1.824270000E+003         1    1         1     17049  5.107584284E-001  2.284712341E-001  4.843821765E-001  7.092299258E+002  6.269039771E+003  1.998309254E+001         3
      18       1  1.931580000E+003         1    1         1     17049  5.113901395E-001  2.121999460E-001  4.834788242E-001  7.092825684E+002  6.267683830E+003  1.996554312E+001         3
      19       1  2.038890000E+003         1    1         1     17049  5.120217244E-001  1.958949983E-001  4.825771566E-001  7.093352004E+002  6.266325084E+003  1.994802642E+001         3
      20       1  2.146200000E+003         1    1         1     17049  5.126531830E-001  1.795563214E-001  4.816771706E-001  7.093878220E+002  6.264963528E+003  1.993054239E+001         3
      21       1  2.253510000E+003         1    1         1     17049  5.132845154E-001  1.631838455E-001  4.807788630E-001  7.094404330E+002  6.263599155E+003  1.991309097E+001         3
      22       1  2.360820000E+003         1    1         1     17049  5.139157217E-001  1.467775008E-001  4.798822307E-001  7.094930336E+002  6.262231959E+003  1.989567210E+001         3
      23       1  2.468130000E+003         1    1         1     17049  5.145468018E-001  1.303372171E-001  4.789872706E-001  7.095456236E+002  6.260861936E+003  1.987828571E+001         3
      24       1  2.575440000E+003         1    1         1     17049  5.151777558E-001  1.138629243E-001  4.780939796E-001  7.095982031E+002  6.259489078E+003  1.986093174E+001         3
      25       1  2.682750000E+003         1    1         1     17049  5.158085837E-001  9.735455197E-002  4.772023545E-001  7.096507721E+002  6.258113380E+003  1.984361014E+001         3
      26       1  2.790060000E+003         1    1         1     17049  5.164392855E-001  8.081202965E-002  4.763123923E-001  7.097033306E+002  6.256734836E+003  1.982632084E+001         3
      27       1  2.897370000E+003         1    1         1     17049  5.170698613E-001  6.423528669E-002  4.754240898E-001  7.097558786E+002  6.255353441E+003  1.980906379E+001         3
      28       1  3.004680000E+003         1    1         1     17049  5.177003111E-001  4.762425229E-002  4.745374439E-001  7.098084160E+002  6.253969188E+003  1.979183892E+001         3
      29       1  3.111990000E+003         1    1         1     17049  5.183306349E-001  3.097885553E-002  4.736524516E-001  7.098609430E+002  6.252582072E+003  1.977464618E+001         3
      30       1  3.219300000E+003         1    1         1     17049  5.189608327E-001  1.429902530E-002  4.727691098E-001  7.099134595E+002  6.251192086E+003  1.975748550E+001         3
      31       1  3.326610000E+003         1    1         1     17109  5.195554562E-001  9.976049140E-001  4.718887198E-001  7.099630115E+002  6.249800909E+003  1.965377191E+001         3
      32       1  3.433920000E+003         1    1         1     17109  5.199399064E-001  9.809964947E-001  4.710176852E-001  7.099950490E+002  6.248416874E+003  1.963670747E+001         3
      33       1  3.541230000E+003         1    1         1     17109  5.203242826E-001  9.643541589E-001  4.701482584E-001  7.100270804E+002  6.247030013E+003  1.961967453E+001         3
      34       1  3.648540000E+003         1    1         1     17109  5.207085849E-001  9.476778373E-001  4.692804364E-001  7.100591055E+002  6.245640319E+003  1.960267303E+001         3
      35       1  3.755850000E+003         1    1         1     17109  5.210928131E-001  9.309674606E-001  4.684142163E-001  7.100911246E+002  6.244247788E+003  1.958570291E+001         3
      36       1  3.863160000E+003         1    1         1     17109  5.214769674E-001  9.142229592E-001  4.675495950E-001  7.101231374E+002  6.242852413E+003  1.956876412E+001         3
      37       1  3.970470000E+003         1    1         1     17109  5.218610477E-001  8.974442633E-001  4.666865698E-001  7.101551441E+002  6.241454188E+003  1.955185659E+001         3
      38       1  4.077780000E+003         1    1         1     17109  5.222450541E-001  8.806313033E-001  4.658251375E-001  7.101871447E+002  6.240053108E+003  1.953498027E+001         3
      39       1  4.185090000E+003         1    1         1     17109  5.226289865E-001  8.637840091E-001  4.649652954E-001  7.102191390E+002  6.238649167E+003  1.951813510E+001         3
      40       1  4.292400000E+003         1    1         1     17109  5.230128451E-001  8.469023106E-001  4.641070403E-001  7.102511272E+002  6.237242358E+003  1.950132103E+001         3
      41       1  4.399710000E+003         1    1         1     17109  5.233966297E-001  8.299861375E-001  4.632503695E-001  7.102831093E+002  6.235832677E+003  1.948453799E+001         3
      42       1  4.507020000E+003         1    1         1     17109  5.237803404E-001  8.130354194E-001  4.623952800E-001  7.103150852E+002  6.234420117E+003  1.946778593E+001         3
      43       1  4.614330000E+003         1    1         1     17109  5.241639773E-001  7.960500859E-001  4.615417688E-001  7.103470549E+002  6.233004672E+003  1.945106479E+001         3
      44       1  4.721640000E+003         1    1         1     17109  5.245475404E-001  7.790300661E-001  4.606898331E-001  7.103790185E+002  6.231586337E+003  1.943437452E+001         3
      45       1  4.828950000E+003         1    1         1     17109  5.249310295E-001  7.619752893E-001  4.598394699E-001  7.104109760E+002  6.230165106E+003  1.941771505E+001         3
      46       1  4.936260000E+003         1    1         1     17109  5.253144449E-001  7.448856845E-001  4.589906764E-001  7.104429272E+002  6.228740972E+003  1.940108634E+001         3
      47       1  5.043570000E+003         1    1         1     17109  5.256977864E-001  7.277611806E-001  4.581434496E-001  7.104748724E+002  6.227313930E+003  1.938448832E+001         3
      48       1  5.150880000E+003         1    1         1     17109  5.260810542E-001  7.106017062E-001  4.572977866E-001  7.105068114E+002  6.225883974E+003  1.936792094E+001         3
      49       1  5.258190000E+003         1    1         1     17109  5.264642481E-001  6.934071901E-001  4.564536846E-001  7.105387442E+002  6.224451097E+003  1.935138414E+001         3
      50       1  5.365500000E+003         1    1         1     17109  5.268473683E-001  6.761775606E-001  4.556111407E-001  7.105706709E+002  6.223015295E+003  1.933487786E+001         3
      51       1  5.472810000E+003         1    1         1     17109  5.272304147E-001  6.589127460E-001  4.547701520E-001  7.106025914E+002  6.221576560E+003  1.931840205E+001         3
      52       1  5.580120000E+003         1    1         1     17109  5.276133874E-001  6.416126744E-001  4.539307157E-001  7.106345058E+002  6.220134887E+003  1.930195665E+001         3
      53       1  5.687430000E+003         1    1         1     17109  5.279962864E-001  6.242772739E-001  4.530928288E-001  7.106664141E+002  6.218690270E+003  1.928554161E+001         3
      54       1  5.794740000E+003         1    1         1     17109  5.283791116E-001  6.069064724E-001  4.522564885E-001  7.106983162E+002  6.217242703E+003  1.926915687E+001         3
      55       1  5.902050000E+003         1    1         1     17109  5.287618632E-001  5.895001974E-001  4.514216920E-001  7.107302121E+002  6.215792180E+003  1.925280237E+001         3
      56       1  6.009360000E+003         1    1         1     17109  5.291445410E-001  5.720583767E-001  4.505884364E-001  7.107621019E+002  6.214338695E+003  1.923647806E+001         3
      57       1  6.116670000E+003         1    1         1     17109  5.295271452E-001  5.545809375E-001  4.497567189E-001  7.107939856E+002  6.212882242E+003  1.922018388E+001         3
      58       1  6.223980000E+003         1    1         1     17109  5.299096758E-001  5.370678073E-001  4.489265366E-001  7.108258632E+002  6.211422814E+003  1.920391978E+001         3
      59       1  6.331290000E+003         1    1         1     17109  5.302921326E-001  5.195189129E-001  4.480978866E-001  7.108577346E+002  6.209960406E+003  1.918768570E+001         3
      60       1  6.438600000E+003         1    1         1     17109  5.306745159E-001  5.019341816E-001  4.472707663E-001  7.108895999E+002  6.208495012E+003  1.917148158E+001         3
      61       1  6.545910000E+003         1    1         1     17109  5.310568255E-001  4.843135399E-001  4.464451726E-001  7.109214590E+002  6.207026625E+003  1.915530738E+001         3
      62       1  6.653220000E+003         1    1         1     17109  5.314390616E-001  4.666569147E-001  4.456211029E-001  7.109533120E+002  6.205555239E+003  1.913916303E+001         3
      63       1  6.760530000E+003         1    1         1     17109  5.318212240E-001  4.489642325E-001  4.447985543E-001  7.109851589E+002  6.204080849E+003  1.912304848E+001         3
      64       1  6.867840000E+003         1    1         1     17109  5.322033129E-001  4.312354195E-001  4.439775240E-001  7.110169996E+002  6.202603448E+003  1.910696367E+001         3
      65       1  6.975150000E+003         1    1         1     17109  5.325853282E-001  4.134704021E-001  4.431580092E-001  7.110488342E+002  6.201123030E+003  1.909090856E+001         3
      66       1  7.082460000E+003         1    1         1     17109  5.329672700E-001  3.956691063E-001  4.423400071E-001  7.110806627E+002  6.199639588E+003  1.907488308E+001         3
      67       1  7.189770000E+003         1    1         1     17109  5.333491383E-001  3.778314579E-001  4.415235149E-001  7.111124851E+002  6.198153117E+003  1.905888718E+001         3
      68       1  7.297080000E+003         1    1         1     17109  5.337309330E-001  3.599573828E-001  4.407085298E-001  7.111443013E+002  6.196663611E+003  1.904292081E+001         3
      69       1  7.404390000E+003         1    1         1     17109  5.341126542E-001  3.420468067E-001  4.398950491E-001  7.111761114E+002  6.195171063E+003  1.902698391E+001         3
      70       1  7.511700000E+003         1    1         1     17109  5.344943020E-001  3.240996548E-001  4.390830699E-001  7.112079154E+002  6.193675467E+003  1.901107642E+001         3
      71       1  7.619010000E+003         1    1         1     17109  5.348758762E-001  3.061158526E-001  4.382725895E-001  7.112397133E+002  6.192176816E+003  1.899519830E+001         3
      72       1  7.726320000E+003         1    1         1     17109  5.352573771E-001  2.880953252E-001  4.374636051E-001  7.112715050E+002  6.190675106E+003  1.897934949E+001         3
      73       1  7.833630000E+003         1    1         1     17109  5.356388044E-001  2.700379976E-001  4.366561140E-001  7.113032906E+002  6.189170328E+003  1.896352993E+001         3
      74       1  7.940940000E+003         1    1         1     17109  5.360201584E-001  2.519437946E-001  4.358501134E-001  7.113350701E+002  6.187662478E+003  1.894773957E+001         3
      75       1  8.048250000E+003         1    1         1     17109  5.364014389E-001  2.338126410E-001  4.350456006E-001  7.113668435E+002  6.186151548E+003  1.893197836E+001         3
      76       1  8.155560000E+003         1    1         1     17109  5.367826460E-001  2.156444613E-001  4.342425728E-001  7.113986107E+002  6.184637533E+003  1.891624624E+001         3
      77       1  8.262870000E+003         1    1         1     17109  5.371637797E-001  1.974391799E-001  4.334410272E-001  7.114303719E+002  6.183120426E+003  1.890054316E+001         3
      78       1  8.370180000E+003         1    1         1     17109  5.375448401E-001  1.791967210E-001  4.326409611E-001  7.114621269E+002  6.181600221E+003  1.888486907E+001         3
      79       1  8.477490000E+003         1    1         1     17109  5.379258271E-001  1.609170087E-001  4.318423719E-001  7.114938758E+002  6.180076912E+003  1.886922391E+001         3
      80       1  8.584800000E+003         1    1         1     17109  5.383067407E-001  1.425999669E-001  4.310452567E-001  7.115256186E+002  6.178550492E+003  1.885360762E+001         3
      81       1  8.692110000E+003         1    1         1     17109  5.386875810E-001  1.242455194E-001  4.302496129E-001  7.115573553E+002  6.177020954E+003  1.883802017E+001         3
      82       1  8.799420000E+003         1    1         1     17109  5.390683480E-001  1.058535897E-001  4.294554378E-001  7.115890859E+002  6.175488293E+003  1.882246148E+001         3
      83       1  8.906730000E+003         1    1         1     17109  5.394490417E-001  8.742410147E-002  4.286627285E-001  7.116208104E+002  6.173952502E+003  1.880693151E+001         3
      84       1  9.014040000E+003         1    1         1     17109  5.398296621E-001  6.895697786E-002  4.278714825E-001  7.116525288E+002  6.172413575E+003  1.879143021E+001         3
      85       1  9.121350000E+003         1    1         1     17109  5.402102093E-001  5.045214205E-002  4.270816970E-001  7.116842410E+002  6.170871506E+003  1.877595753E+001         3
      86       1  9.228660000E+003         1    1         1     17109  5.405906831E-001  3.190951702E-002  4.262933693E-001  7.117159472E+002  6.169326287E+003  1.876051340E+001         3
      87       1  9.335970000E+003         1    1         1     17109  5.409710838E-001  1.332902561E-002  4.255064967E-001  7.117476473E+002  6.167777912E+003  1.874509778E+001         3
      88       1  9.443280000E+003         1    1         1     17169  5.412502508E-001  9.947105985E-001  4.247209189E-001  7.117709112E+002  6.166226377E+003  1.872970752E+001         3
      89       1  9.550590000E+003         1    1         1     17169  5.412742100E-001  9.760542989E-001  4.239363942E-001  7.117729078E+002  6.164671685E+003  1.871433790E+001         3
      90       1  9.657900000E+003         1    1         1     17169  5.412981649E-001  9.573601009E-001  4.231533186E-001  7.117749040E+002  6.163113835E+003  1.869899666E+001         3
      91       1  9.765210000E+003         1    1         1     17169  5.413221155E-001  9.386279277E-001  4.223716895E-001  7.117768999E+002  6.161552820E+003  1.868368377E+001         3
      92       1  9.872520000E+003         1    1         1     17169  5.413460617E-001  9.198577021E-001  4.215915042E-001  7.117788954E+002  6.159988635E+003  1.866839916E+001         3
      93       1  9.979830000E+003         1    1         1     17169  5.413700036E-001  9.010493467E-001  4.208127600E-001  7.117808906E+002  6.158421272E+003  1.865314278E+001         3
      94      89  1.008714000E+004         1    1         1     17169  5.413930227E-001  8.824238364E-001  4.200454328E-001  7.117828088E+002  6.156869146E+003  1.863811007E+001         3
      95     196  1.019445000E+004         1    1         1     17169  5.414390455E-001  8.636860390E-001  4.192437575E-001  7.117866441E+002  6.155307662E+003  1.862240445E+001         3
      96     303  1.030176000E+004         1    1         1     17169  5.415143871E-001  8.420841567E-001  4.182843303E-001  7.117929225E+002  6.153507505E+003  1.860360831E+001         3
      97     411  1.040907000E+004         1    1         1     17169  5.415293025E-001  8.213944022E-001  4.174538116E-001  7.117941655E+002  6.151783359E+003  1.858733762E+001         3
      98     518  1.051638000E+004         1    1         1     17169  5.415273590E-001  8.044230568E-001  4.168029386E-001  7.117940035E+002  6.150369080E+003  1.857458637E+001         3
      99     625  1.062369000E+004         1    1         1     17169  5.415865618E-001  7.857787415E-001  4.159973593E-001  7.117989371E+002  6.148815387E+003  1.855880427E+001         3
     100     732  1.073100000E+004         1    1         1     17169  5.416265303E-001  7.650965264E-001  4.151390403E-001  7.118022678E+002  6.147091869E+003  1.854198894E+001         3
