# MPSIM package for MODPATH 7, generated by Flopy.
freyberg6.mpnam
freyberg6.mplst
1 1 1 1 0 0
freyberg6.mpend
freyberg6.mppth
freyberg6.timeseries
0
1
0
