# # MPBAS package for MODPATH 7, generated by Flopy.
1                   # DEFAULTIFACECOUNT
RCH                 # PACKAGE LABEL
6                   # DEFAULT IFACE VALUE
OPEN/CLOSE freyberg6.porosity_layer1.txt 1.0 (FREE)
OPEN/CLOSE freyberg6.porosity_layer2.txt 1.0 (FREE)
OPEN/CLOSE freyberg6.porosity_layer3.txt 1.0 (FREE)
