MODPATH_ENDPOINT_FILE 6 0                                                       
 1          1          1          1   0.0000000E+00
         0          0          1          0          0          0
         1
part            
END HEADER
          1     1  2   0.0000000E+00   0.2473902E+03  1    1   15    3 6          1   0.5000000E+00   0.5000000E+00   0.1000000E+01   0.6250000E+03   0.6375000E+04   0.3466348E+02  1    3   30    7 4          1   0.5437551E-02   0.1000000E+01   0.1928863E+00   0.1501359E+04   0.2750000E+04   0.1016074E+02 part_0000
