BEGIN OPTIONS
  SAVE_FLOWS
END OPTIONS

BEGIN DIMENSIONS
  MAXBOUND 1
END DIMENSIONS

BEGIN PERIOD 1
  1 15 3 1000.0
END PERIOD

