# File generated by Flopy version 3.3.4 on 10/01/2021 at 15:41:46.
BEGIN options
  XT3D_OFF
END options

BEGIN griddata
  ALH
    CONSTANT 25.0
  ATH1
    CONSTANT 2.5
END griddata

