BEGIN griddata
  strt
    OPEN/CLOSE  'freyberg6.ic_conc_strt_layer1.txt'  FACTOR  1.0
END griddata

