BEGIN OPTIONS
  BUDGET  FILEOUT  freyberg6_freyberg.cbb
  CONCENTRATION  FILEOUT  freyberg6_trns.ucn
  CONCENTRATION  PRINT_FORMAT  COLUMNS  10  WIDTH  15  DIGITS  6  GENERAL
END OPTIONS

BEGIN PERIOD  1
  SAVE  CONCENTRATION  LAST
  SAVE  BUDGET  LAST
  PRINT  BUDGET  LAST
END PERIOD  1



