# File generated by Flopy version 3.3.4 on 10/01/2021 at 15:41:46.
BEGIN options
END options

BEGIN sources
END sources

