# File generated by Flopy version 3.3.4 on 10/01/2021 at 15:41:46.
BEGIN griddata
  strt
    CONSTANT      0.00000000
END griddata

